<routes>
	<vType id="car" type="passenger" length="5" accel="5" decel="2.2" minGap="1.0" sigma="1.0" />
	<flow id="carflow" type="car" beg="0" end="0" number="5" from="10" to="9" color="1,0,0"/>
	<flow id="carflow1" type="car" beg="3" end="0" number="10" from="11" to="9" color="1,1,0"/>
	<!--route id="trip1" depart="1" from="edge1" to="edge2"/-->
	<!--route="edge1 edge2 edge3 edge4 " -->
	<!--vehicle id="veh0" depart="1" route="trip1" type="car"/-->
</routes>
  
