<?xml version="1.0" encoding="UTF-8"?>

<!-- generated on Mon May  7 17:47:17 2018 by SUMO netconvert Version 0.32.0
<?xml version="1.0" encoding="UTF-8"?>

<configuration xmlns:xsi="http://www.w3.org/2001/XMLSchema-instance" xsi:noNamespaceSchemaLocation="http://sumo.dlr.de/xsd/netconvertConfiguration.xsd">

    <input>
        <osm-files value="map.osm"/>
    </input>

    <output>
        <output-file value="map.net.xml"/>
    </output>

    <projection>
        <proj.utm value="true"/>
    </projection>

</configuration>
-->

<net version="0.27" xmlns:xsi="http://www.w3.org/2001/XMLSchema-instance" xsi:noNamespaceSchemaLocation="http://sumo.dlr.de/xsd/net_file.xsd">

    <location netOffset="-410363.97,-5653365.29" convBoundary="0.00,0.00,678.11,636.28" origBoundary="13.721780,51.024872,13.731500,51.030638" projParameter="+proj=utm +zone=33 +ellps=WGS84 +datum=WGS84 +units=m +no_defs"/>

    <type id="highway.bridleway" priority="1" numLanes="1" speed="2.78" allow="pedestrian" oneway="1" width="2.00"/>
    <type id="highway.bus_guideway" priority="1" numLanes="1" speed="8.33" allow="bus" oneway="1"/>
    <type id="highway.cycleway" priority="1" numLanes="1" speed="5.56" allow="bicycle" oneway="0" width="1.00"/>
    <type id="highway.footway" priority="1" numLanes="1" speed="2.78" allow="pedestrian" oneway="1" width="2.00"/>
    <type id="highway.ford" priority="1" numLanes="1" speed="2.78" allow="army" oneway="0"/>
    <type id="highway.living_street" priority="3" numLanes="1" speed="2.78" disallow="tram rail_urban rail rail_electric ship" oneway="0"/>
    <type id="highway.motorway" priority="13" numLanes="2" speed="44.44" allow="private emergency authority army vip passenger hov taxi bus coach delivery truck trailer motorcycle evehicle custom1 custom2" oneway="1"/>
    <type id="highway.motorway_link" priority="12" numLanes="1" speed="22.22" allow="private emergency authority army vip passenger hov taxi bus coach delivery truck trailer motorcycle evehicle custom1 custom2" oneway="1"/>
    <type id="highway.path" priority="1" numLanes="1" speed="2.78" allow="bicycle pedestrian" oneway="1" width="2.00"/>
    <type id="highway.pedestrian" priority="1" numLanes="1" speed="2.78" allow="pedestrian" oneway="1" width="2.00"/>
    <type id="highway.primary" priority="9" numLanes="2" speed="27.78" disallow="tram rail_urban rail rail_electric ship" oneway="0"/>
    <type id="highway.primary_link" priority="8" numLanes="1" speed="22.22" disallow="tram rail_urban rail rail_electric ship" oneway="0"/>
    <type id="highway.raceway" priority="14" numLanes="2" speed="83.33" allow="vip" oneway="0"/>
    <type id="highway.residential" priority="4" numLanes="1" speed="13.89" disallow="tram rail_urban rail rail_electric ship" oneway="0"/>
    <type id="highway.secondary" priority="7" numLanes="2" speed="27.78" disallow="tram rail_urban rail rail_electric ship" oneway="0"/>
    <type id="highway.secondary_link" priority="6" numLanes="1" speed="22.22" disallow="tram rail_urban rail rail_electric ship" oneway="0"/>
    <type id="highway.service" priority="2" numLanes="1" speed="5.56" allow="delivery bicycle pedestrian" oneway="0"/>
    <type id="highway.services" priority="1" numLanes="1" speed="8.33" disallow="tram rail_urban rail rail_electric ship" oneway="0"/>
    <type id="highway.stairs" priority="1" numLanes="1" speed="1.39" allow="pedestrian" oneway="1" width="2.00"/>
    <type id="highway.step" priority="1" numLanes="1" speed="1.39" allow="pedestrian" oneway="1" width="2.00"/>
    <type id="highway.steps" priority="1" numLanes="1" speed="1.39" allow="pedestrian" oneway="1" width="2.00"/>
    <type id="highway.tertiary" priority="6" numLanes="1" speed="22.22" disallow="tram rail_urban rail rail_electric ship" oneway="0"/>
    <type id="highway.tertiary_link" priority="5" numLanes="1" speed="22.22" disallow="tram rail_urban rail rail_electric ship" oneway="0"/>
    <type id="highway.track" priority="1" numLanes="1" speed="5.56" disallow="tram rail_urban rail rail_electric ship" oneway="0"/>
    <type id="highway.trunk" priority="11" numLanes="2" speed="27.78" disallow="tram rail_urban rail rail_electric bicycle pedestrian ship" oneway="0"/>
    <type id="highway.trunk_link" priority="10" numLanes="1" speed="22.22" disallow="tram rail_urban rail rail_electric bicycle pedestrian ship" oneway="0"/>
    <type id="highway.unclassified" priority="5" numLanes="1" speed="13.89" disallow="tram rail_urban rail rail_electric ship" oneway="0"/>
    <type id="highway.unsurfaced" priority="1" numLanes="1" speed="8.33" disallow="tram rail_urban rail rail_electric ship" oneway="0"/>
    <type id="railway.light_rail" priority="15" numLanes="1" speed="27.78" allow="rail_urban" oneway="1"/>
    <type id="railway.preserved" priority="15" numLanes="1" speed="27.78" allow="rail" oneway="1"/>
    <type id="railway.rail" priority="15" numLanes="1" speed="83.33" allow="rail rail_electric" oneway="1"/>
    <type id="railway.subway" priority="15" numLanes="1" speed="27.78" allow="rail_urban" oneway="1"/>
    <type id="railway.tram" priority="15" numLanes="1" speed="13.89" allow="tram" oneway="1"/>

    <edge id=":1097033790_0" function="internal">
        <lane id=":1097033790_0_0" index="0" allow="delivery bicycle pedestrian" speed="4.17" length="5.00" shape="142.45,338.58 137.50,337.88"/>
    </edge>
    <edge id=":1097033790_1" function="internal">
        <lane id=":1097033790_1_0" index="0" allow="delivery bicycle pedestrian" speed="4.17" length="2.41" shape="142.45,338.58 141.34,337.59 141.04,336.72"/>
    </edge>
    <edge id=":1097033790_4" function="internal">
        <lane id=":1097033790_4_0" index="0" speed="4.17" length="2.41" shape="141.04,336.72 141.57,335.96 142.91,335.31"/>
    </edge>
    <edge id=":1097033790_2" function="internal">
        <lane id=":1097033790_2_0" index="0" allow="delivery bicycle pedestrian" speed="4.17" length="5.00" shape="137.96,334.62 142.91,335.31"/>
    </edge>
    <edge id=":1097033790_3" function="internal">
        <lane id=":1097033790_3_0" index="0" allow="delivery bicycle pedestrian" speed="4.17" length="2.41" shape="137.96,334.62 139.07,335.61 139.36,336.48"/>
    </edge>
    <edge id=":1097033790_5" function="internal">
        <lane id=":1097033790_5_0" index="0" speed="4.17" length="2.41" shape="139.36,336.48 138.84,337.24 137.50,337.88"/>
    </edge>
    <edge id=":1097033796_0" function="internal">
        <lane id=":1097033796_0_0" index="0" allow="delivery bicycle pedestrian" speed="5.56" length="5.04" shape="170.17,280.47 168.81,280.52 167.78,281.00 167.08,281.91 166.71,283.25"/>
    </edge>
    <edge id=":1097033796_1" function="internal">
        <lane id=":1097033796_1_0" index="0" allow="delivery bicycle pedestrian" speed="5.56" length="9.46" shape="170.17,280.47 160.77,279.34"/>
    </edge>
    <edge id=":1097033796_2" function="internal">
        <lane id=":1097033796_2_0" index="0" allow="delivery bicycle pedestrian" speed="5.56" length="4.82" shape="170.17,280.47 169.03,279.51 168.71,278.65 169.21,277.87 170.53,277.19"/>
    </edge>
    <edge id=":1097033796_3" function="internal">
        <lane id=":1097033796_3_0" index="0" allow="delivery bicycle pedestrian" speed="5.56" length="9.39" shape="161.20,276.07 170.53,277.19"/>
    </edge>
    <edge id=":1097033796_4" function="internal">
        <lane id=":1097033796_4_0" index="0" allow="delivery bicycle pedestrian" speed="5.56" length="10.33" shape="161.20,276.07 163.93,276.83 165.76,278.28 166.68,280.42 166.71,283.25"/>
    </edge>
    <edge id=":1097033796_5" function="internal">
        <lane id=":1097033796_5_0" index="0" allow="delivery bicycle pedestrian" speed="5.56" length="4.82" shape="161.20,276.07 162.32,277.04 162.63,277.92 162.11,278.68 160.77,279.34"/>
    </edge>
    <edge id=":1097033796_6" function="internal">
        <lane id=":1097033796_6_0" index="0" allow="delivery bicycle pedestrian" speed="5.56" length="5.00" shape="163.44,282.82 163.43,281.45 162.98,280.41 162.09,279.71 160.77,279.34"/>
    </edge>
    <edge id=":1097033796_7" function="internal">
        <lane id=":1097033796_7_0" index="0" allow="delivery bicycle pedestrian" speed="5.56" length="10.27" shape="163.44,282.82 164.20,280.10 165.63,278.25 167.74,277.28 170.53,277.19"/>
    </edge>
    <edge id=":1097033796_8" function="internal">
        <lane id=":1097033796_8_0" index="0" allow="delivery bicycle pedestrian" speed="5.56" length="4.82" shape="163.44,282.82 164.42,281.70 165.29,281.40 166.06,281.92 166.71,283.25"/>
    </edge>
    <edge id=":1097033800_0" function="internal">
        <lane id=":1097033800_0_0" index="0" allow="delivery bicycle pedestrian" speed="5.56" length="8.13" shape="152.75,383.93 150.40,383.39 148.76,383.13 147.11,383.07 144.70,383.18"/>
    </edge>
    <edge id=":1097033800_1" function="internal">
        <lane id=":1097033800_1_0" index="0" allow="delivery bicycle pedestrian" speed="4.86" length="4.93" shape="152.75,383.93 150.26,382.96 148.60,381.43"/>
    </edge>
    <edge id=":1097033800_2" function="internal">
        <lane id=":1097033800_2_0" index="0" allow="delivery bicycle pedestrian" speed="5.56" length="2.41" shape="152.75,383.93 151.73,382.84 151.52,381.95"/>
    </edge>
    <edge id=":1097033800_9" function="internal">
        <lane id=":1097033800_9_0" index="0" speed="4.86" length="4.93" shape="148.60,381.43 147.76,379.33 147.76,376.67"/>
    </edge>
    <edge id=":1097033800_10" function="internal">
        <lane id=":1097033800_10_0" index="0" speed="5.56" length="2.41" shape="151.52,381.95 152.11,381.24 153.50,380.72"/>
    </edge>
    <edge id=":1097033800_3" function="internal">
        <lane id=":1097033800_3_0" index="0" allow="delivery bicycle pedestrian" speed="4.86" length="4.89" shape="151.03,377.11 151.03,378.44 151.44,379.48 152.27,380.24 153.50,380.72"/>
    </edge>
    <edge id=":1097033800_4" function="internal">
        <lane id=":1097033800_4_0" index="0" allow="delivery bicycle pedestrian" speed="4.86" length="9.63" shape="151.03,377.11 150.33,379.65 149.05,381.51 147.17,382.69 144.70,383.18"/>
    </edge>
    <edge id=":1097033800_5" function="internal">
        <lane id=":1097033800_5_0" index="0" allow="delivery bicycle pedestrian" speed="4.17" length="4.82" shape="151.03,377.11 150.04,378.23 149.17,378.52 148.41,378.00 147.76,376.67"/>
    </edge>
    <edge id=":1097033800_6" function="internal">
        <lane id=":1097033800_6_0" index="0" allow="delivery bicycle pedestrian" speed="4.86" length="5.01" shape="144.52,379.89 145.78,379.63 146.74,379.00 147.40,378.02 147.76,376.67"/>
    </edge>
    <edge id=":1097033800_7" function="internal">
        <lane id=":1097033800_7_0" index="0" allow="delivery bicycle pedestrian" speed="5.56" length="9.08" shape="144.52,379.89 147.21,379.77 149.05,379.82 150.88,380.12 153.50,380.72"/>
    </edge>
    <edge id=":1097033800_8" function="internal">
        <lane id=":1097033800_8_0" index="0" allow="delivery bicycle pedestrian" speed="5.56" length="2.41" shape="144.52,379.89 145.80,380.64 146.26,381.44"/>
    </edge>
    <edge id=":1097033800_11" function="internal">
        <lane id=":1097033800_11_0" index="0" speed="5.56" length="2.41" shape="146.26,381.44 145.89,382.29 144.70,383.18"/>
    </edge>
    <edge id=":1097033835_0" function="internal">
        <lane id=":1097033835_0_0" index="0" allow="delivery bicycle pedestrian" speed="5.56" length="4.82" shape="35.13,378.34 34.00,377.38 33.68,376.51 34.18,375.74 35.50,375.06"/>
    </edge>
    <edge id=":1097033881_0" function="internal">
        <lane id=":1097033881_0_0" index="0" allow="delivery bicycle pedestrian" speed="5.56" length="4.82" shape="166.65,317.31 166.10,318.69 165.39,319.27 164.49,319.04 163.42,318.01"/>
    </edge>
    <edge id=":1097033908_0" function="internal">
        <lane id=":1097033908_0_0" index="0" allow="delivery bicycle pedestrian" speed="5.56" length="4.34" shape="160.93,306.61 160.70,305.35 160.66,304.48 160.75,303.59 160.92,302.31"/>
    </edge>
    <edge id=":1097033908_1" function="internal">
        <lane id=":1097033908_1_0" index="0" allow="delivery bicycle pedestrian" speed="5.56" length="4.82" shape="160.93,306.61 161.48,305.23 162.20,304.65 163.09,304.88 164.16,305.91"/>
    </edge>
    <edge id=":1097033908_2" function="internal">
        <lane id=":1097033908_2_0" index="0" allow="delivery bicycle pedestrian" speed="5.56" length="3.21" shape="164.20,302.73 164.06,303.67 163.98,304.33 163.99,304.98 164.16,305.91"/>
    </edge>
    <edge id=":1097033908_3" function="internal">
        <lane id=":1097033908_3_0" index="0" allow="delivery bicycle pedestrian" speed="5.56" length="4.82" shape="164.20,302.73 163.22,303.85 162.35,304.16 161.59,303.65 160.92,302.31"/>
    </edge>
    <edge id=":1097033912_0" function="internal">
        <lane id=":1097033912_0_0" index="0" allow="delivery bicycle pedestrian" speed="5.56" length="8.07" shape="144.18,383.21 141.86,383.51 140.34,384.10 138.94,385.05 136.94,386.39"/>
    </edge>
    <edge id=":1097033912_1" function="internal">
        <lane id=":1097033912_1_0" index="0" allow="delivery bicycle pedestrian" speed="5.56" length="9.98" shape="144.18,383.21 141.33,383.11 139.44,382.42 137.74,381.13 135.43,379.24"/>
    </edge>
    <edge id=":1097033912_2" function="internal">
        <lane id=":1097033912_2_0" index="0" allow="delivery bicycle pedestrian" speed="5.56" length="4.82" shape="144.18,383.21 142.90,382.45 142.44,381.65 142.81,380.81 144.00,379.91"/>
    </edge>
    <edge id=":1097033912_3" function="internal">
        <lane id=":1097033912_3_0" index="0" allow="delivery bicycle pedestrian" speed="5.56" length="7.65" shape="137.43,376.62 139.17,378.10 140.43,379.18 141.84,379.80 144.00,379.91"/>
    </edge>
    <edge id=":1097033912_4" function="internal">
        <lane id=":1097033912_4_0" index="0" allow="delivery bicycle pedestrian" speed="5.56" length="12.46" shape="137.43,376.62 139.98,379.19 140.75,381.68 139.74,384.08 136.94,386.39"/>
    </edge>
    <edge id=":1097033912_5" function="internal">
        <lane id=":1097033912_5_0" index="0" allow="delivery bicycle pedestrian" speed="5.56" length="4.82" shape="137.43,376.62 137.91,378.02 137.74,378.93 136.91,379.34 135.43,379.24"/>
    </edge>
    <edge id=":1097033912_6" function="internal">
        <lane id=":1097033912_6_0" index="0" allow="delivery bicycle pedestrian" speed="5.56" length="5.52" shape="135.21,383.57 136.45,382.55 136.90,381.49 136.56,380.38 135.43,379.24"/>
    </edge>
    <edge id=":1097033912_7" function="internal">
        <lane id=":1097033912_7_0" index="0" allow="delivery bicycle pedestrian" speed="5.56" length="9.71" shape="135.21,383.57 137.63,381.99 139.35,380.91 141.19,380.25 144.00,379.91"/>
    </edge>
    <edge id=":1097033912_8" function="internal">
        <lane id=":1097033912_8_0" index="0" allow="delivery bicycle pedestrian" speed="5.56" length="4.82" shape="135.21,383.57 136.70,383.63 137.48,384.12 137.56,385.03 136.94,386.39"/>
    </edge>
    <edge id=":1122039221_0" function="internal">
        <lane id=":1122039221_0_0" index="0" allow="delivery bicycle pedestrian" speed="5.56" length="9.50" shape="417.53,378.53 427.01,379.15"/>
    </edge>
    <edge id=":1122039221_1" function="internal">
        <lane id=":1122039221_1_0" index="0" allow="delivery bicycle pedestrian" speed="5.56" length="7.89" shape="417.53,378.53 420.32,378.91 422.28,379.64 423.40,380.71 423.69,382.12"/>
    </edge>
    <edge id=":1122039221_2" function="internal">
        <lane id=":1122039221_2_0" index="0" allow="delivery bicycle pedestrian" speed="5.56" length="7.87" shape="420.40,381.85 420.91,380.52 422.18,379.62 424.21,379.16 427.01,379.15"/>
    </edge>
    <edge id=":1122039221_3" function="internal">
        <lane id=":1122039221_3_0" index="0" allow="delivery bicycle pedestrian" speed="5.56" length="4.82" shape="420.40,381.85 421.32,380.69 422.18,380.34 422.96,380.82 423.69,382.12"/>
    </edge>
    <edge id=":1122039223_0" function="internal">
        <lane id=":1122039223_0_0" index="0" allow="delivery bicycle pedestrian" speed="5.56" length="2.76" shape="455.74,540.87 455.55,543.62"/>
    </edge>
    <edge id=":1122039313_0" function="internal">
        <lane id=":1122039313_0_0" index="0" allow="delivery bicycle pedestrian" speed="5.56" length="4.82" shape="393.83,390.39 394.13,388.93 394.74,388.24 395.66,388.31 396.89,389.15"/>
    </edge>
    <edge id=":1122039342_0" function="internal">
        <lane id=":1122039342_0_0" index="0" allow="delivery bicycle pedestrian" speed="5.56" length="4.82" shape="438.69,389.98 440.00,390.68 440.49,391.46 440.16,392.33 439.01,393.26"/>
    </edge>
    <edge id=":1122039374_0" function="internal">
        <lane id=":1122039374_0_0" index="0" allow="delivery bicycle pedestrian" speed="5.56" length="2.08" shape="400.15,430.03 400.36,430.61 400.46,431.02 400.48,431.45 400.44,432.06"/>
    </edge>
    <edge id=":1122039374_1" function="internal">
        <lane id=":1122039374_1_0" index="0" allow="delivery bicycle pedestrian" speed="5.56" length="2.41" shape="400.15,430.03 399.80,431.47 399.17,432.14"/>
    </edge>
    <edge id=":1122039374_4" function="internal">
        <lane id=":1122039374_4_0" index="0" speed="5.56" length="2.41" shape="399.17,432.14 398.25,432.04 397.05,431.16"/>
    </edge>
    <edge id=":1122039374_2" function="internal">
        <lane id=":1122039374_2_0" index="0" allow="delivery bicycle pedestrian" speed="5.56" length="0.68" shape="397.15,431.82 397.16,431.62 397.15,431.48 397.12,431.35 397.05,431.16"/>
    </edge>
    <edge id=":1122039374_3" function="internal">
        <lane id=":1122039374_3_0" index="0" allow="delivery bicycle pedestrian" speed="5.56" length="2.41" shape="397.15,431.82 398.06,430.65 398.91,430.30"/>
    </edge>
    <edge id=":1122039374_5" function="internal">
        <lane id=":1122039374_5_0" index="0" speed="5.56" length="2.41" shape="398.91,430.30 399.71,430.77 400.44,432.06"/>
    </edge>
    <edge id=":1122039456_0" function="internal">
        <lane id=":1122039456_0_0" index="0" allow="delivery bicycle pedestrian" speed="5.56" length="4.15" shape="399.33,457.61 395.19,457.28"/>
    </edge>
    <edge id=":1122039456_1" function="internal">
        <lane id=":1122039456_1_0" index="0" allow="delivery bicycle pedestrian" speed="5.56" length="8.53" shape="399.33,457.61 397.57,457.05 396.39,455.75 395.78,453.70 395.74,450.91"/>
    </edge>
    <edge id=":1122039456_2" function="internal">
        <lane id=":1122039456_2_0" index="0" allow="delivery bicycle pedestrian" speed="5.56" length="4.82" shape="399.33,457.61 398.17,456.67 397.83,455.81 398.32,455.03 399.62,454.32"/>
    </edge>
    <edge id=":1122039456_3" function="internal">
        <lane id=":1122039456_3_0" index="0" allow="delivery bicycle pedestrian" speed="5.56" length="3.43" shape="399.03,451.17 398.95,452.07 398.92,453.09 399.10,453.93 399.62,454.32"/>
    </edge>
    <edge id=":1122039456_4" function="internal">
        <lane id=":1122039456_4_0" index="0" allow="delivery bicycle pedestrian" speed="5.56" length="7.99" shape="399.03,451.17 398.60,453.92 397.82,455.86 396.68,456.98 395.19,457.28"/>
    </edge>
    <edge id=":1122039456_5" function="internal">
        <lane id=":1122039456_5_0" index="0" allow="delivery bicycle pedestrian" speed="5.56" length="4.82" shape="399.03,451.17 398.11,452.34 397.26,452.69 396.47,452.21 395.74,450.91"/>
    </edge>
    <edge id=":1122039456_6" function="internal">
        <lane id=":1122039456_6_0" index="0" allow="delivery bicycle pedestrian" speed="5.56" length="3.35" shape="395.19,453.98 395.69,453.66 395.81,452.84 395.76,451.82 395.74,450.91"/>
    </edge>
    <edge id=":1122039456_7" function="internal">
        <lane id=":1122039456_7_0" index="0" allow="delivery bicycle pedestrian" speed="5.56" length="4.45" shape="395.19,453.98 399.62,454.32"/>
    </edge>
    <edge id=":1122039456_8" function="internal">
        <lane id=":1122039456_8_0" index="0" allow="delivery bicycle pedestrian" speed="5.56" length="4.83" shape="395.19,453.98 396.43,454.80 396.84,455.63 396.43,456.46 395.19,457.28"/>
    </edge>
    <edge id=":1122039499_0" function="internal">
        <lane id=":1122039499_0_0" index="0" disallow="tram rail_urban rail rail_electric ship" speed="8.33" length="4.42" shape="220.79,403.61 220.25,408.00"/>
    </edge>
    <edge id=":1122039499_1" function="internal">
        <lane id=":1122039499_1_0" index="0" allow="delivery bicycle pedestrian" speed="6.25" length="3.96" shape="220.79,403.61 220.45,405.11 219.76,406.14 218.71,406.70"/>
    </edge>
    <edge id=":1122039499_2" function="internal">
        <lane id=":1122039499_2_0" index="0" disallow="tram rail_urban rail rail_electric ship" speed="8.33" length="3.09" shape="220.79,403.61 220.19,405.03 219.42,405.62 218.87,405.46"/>
    </edge>
    <edge id=":1122039499_9" function="internal">
        <lane id=":1122039499_9_0" index="0" speed="6.25" length="1.40" shape="218.71,406.70 217.32,406.78"/>
    </edge>
    <edge id=":1122039499_10" function="internal">
        <lane id=":1122039499_10_0" index="0" speed="8.33" length="1.93" shape="218.87,405.46 218.50,405.36 217.41,404.25"/>
    </edge>
    <edge id=":1122039499_3" function="internal">
        <lane id=":1122039499_3_0" index="0" disallow="tram rail_urban rail rail_electric ship" speed="6.25" length="0.79" shape="217.64,403.49 217.41,404.25"/>
    </edge>
    <edge id=":1122039499_4" function="internal">
        <lane id=":1122039499_4_0" index="0" disallow="tram rail_urban rail rail_electric ship" speed="6.25" length="5.96" shape="217.64,403.49 219.01,403.89 219.90,404.78 220.31,406.15 220.25,408.00"/>
    </edge>
    <edge id=":1122039499_5" function="internal">
        <lane id=":1122039499_5_0" index="0" allow="delivery bicycle pedestrian" speed="4.17" length="4.82" shape="217.64,403.49 218.79,404.44 219.12,405.30 218.63,406.08 217.32,406.78"/>
    </edge>
    <edge id=":1122039499_6" function="internal">
        <lane id=":1122039499_6_0" index="0" allow="delivery bicycle pedestrian" speed="6.25" length="0.98" shape="216.99,407.53 217.12,407.25 217.33,407.02 217.45,406.85 217.32,406.78"/>
    </edge>
    <edge id=":1122039499_7" function="internal">
        <lane id=":1122039499_7_0" index="0" disallow="tram rail_urban rail rail_electric ship" speed="8.33" length="3.31" shape="216.99,407.53 217.41,404.25"/>
    </edge>
    <edge id=":1122039499_8" function="internal">
        <lane id=":1122039499_8_0" index="0" disallow="tram rail_urban rail rail_electric ship" speed="8.33" length="2.41" shape="216.99,407.53 217.98,406.42 218.85,406.13"/>
    </edge>
    <edge id=":1122039499_11" function="internal">
        <lane id=":1122039499_11_0" index="0" speed="8.33" length="2.41" shape="218.85,406.13 219.61,406.66 220.25,408.00"/>
    </edge>
    <edge id=":1122039521_0" function="internal">
        <lane id=":1122039521_0_0" index="0" disallow="tram rail_urban rail rail_electric ship" speed="8.33" length="6.19" shape="232.16,317.14 231.38,323.27"/>
    </edge>
    <edge id=":1122039521_1" function="internal">
        <lane id=":1122039521_1_0" index="0" allow="delivery bicycle pedestrian" speed="6.95" length="3.10" shape="232.16,317.14 231.60,318.46 230.30,319.27 230.17,319.29"/>
    </edge>
    <edge id=":1122039521_2" function="internal">
        <lane id=":1122039521_2_0" index="0" disallow="tram rail_urban rail rail_electric ship" speed="8.33" length="2.41" shape="232.16,317.14 231.20,318.27 230.33,318.59"/>
    </edge>
    <edge id=":1122039521_9" function="internal">
        <lane id=":1122039521_9_0" index="0" speed="6.95" length="4.73" shape="230.17,319.29 228.26,319.57 225.47,319.35"/>
    </edge>
    <edge id=":1122039521_10" function="internal">
        <lane id=":1122039521_10_0" index="0" speed="8.33" length="2.41" shape="230.33,318.59 229.56,318.08 228.88,316.76"/>
    </edge>
    <edge id=":1122039521_3" function="internal">
        <lane id=":1122039521_3_0" index="0" disallow="tram rail_urban rail rail_electric ship" speed="6.95" length="3.25" shape="225.96,316.09 226.82,316.39 227.75,316.85 228.51,317.09 228.88,316.76"/>
    </edge>
    <edge id=":1122039521_4" function="internal">
        <lane id=":1122039521_4_0" index="0" disallow="tram rail_urban rail rail_electric ship" speed="6.95" length="10.22" shape="225.96,316.09 228.64,316.89 230.43,318.35 231.35,320.48 231.38,323.27"/>
    </edge>
    <edge id=":1122039521_5" function="internal">
        <lane id=":1122039521_5_0" index="0" allow="delivery bicycle pedestrian" speed="5.56" length="4.82" shape="225.96,316.09 227.06,317.09 227.35,317.96 226.82,318.72 225.47,319.35"/>
    </edge>
    <edge id=":1122039521_6" function="internal">
        <lane id=":1122039521_6_0" index="0" allow="delivery bicycle pedestrian" speed="6.95" length="4.98" shape="228.11,322.85 228.09,321.49 227.65,320.45 226.77,319.74 225.47,319.35"/>
    </edge>
    <edge id=":1122039521_7" function="internal">
        <lane id=":1122039521_7_0" index="0" disallow="tram rail_urban rail rail_electric ship" speed="8.33" length="6.14" shape="228.11,322.85 228.88,316.76"/>
    </edge>
    <edge id=":1122039521_8" function="internal">
        <lane id=":1122039521_8_0" index="0" disallow="tram rail_urban rail rail_electric ship" speed="8.33" length="2.41" shape="228.11,322.85 229.09,321.73 229.96,321.43"/>
    </edge>
    <edge id=":1122039521_11" function="internal">
        <lane id=":1122039521_11_0" index="0" speed="8.33" length="2.41" shape="229.96,321.43 230.72,321.94 231.38,323.27"/>
    </edge>
    <edge id=":1122039613_0" function="internal">
        <lane id=":1122039613_0_0" index="0" allow="delivery bicycle pedestrian" speed="5.56" length="4.82" shape="214.79,317.75 213.69,316.75 213.40,315.88 213.93,315.12 215.28,314.49"/>
    </edge>
    <edge id=":1122039643_0" function="internal">
        <lane id=":1122039643_0_0" index="0" allow="delivery bicycle pedestrian" speed="5.56" length="8.97" shape="425.14,394.60 422.62,394.48 420.88,393.56 419.94,391.84 419.78,389.32"/>
    </edge>
    <edge id=":1122039643_1" function="internal">
        <lane id=":1122039643_1_0" index="0" allow="delivery bicycle pedestrian" speed="5.56" length="2.75" shape="425.14,394.60 423.83,393.89 423.34,393.11 423.46,392.80"/>
    </edge>
    <edge id=":1122039643_4" function="internal">
        <lane id=":1122039643_4_0" index="0" speed="5.56" length="2.07" shape="423.46,392.80 423.67,392.25 424.82,391.31"/>
    </edge>
    <edge id=":1122039643_2" function="internal">
        <lane id=":1122039643_2_0" index="0" allow="delivery bicycle pedestrian" speed="5.56" length="2.93" shape="423.07,389.59 423.12,390.41 423.43,390.97 424.00,391.27 424.82,391.31"/>
    </edge>
    <edge id=":1122039643_3" function="internal">
        <lane id=":1122039643_3_0" index="0" allow="delivery bicycle pedestrian" speed="5.56" length="2.20" shape="423.07,389.59 422.15,390.75 421.49,391.02"/>
    </edge>
    <edge id=":1122039643_5" function="internal">
        <lane id=":1122039643_5_0" index="0" speed="5.56" length="2.62" shape="421.49,391.02 421.29,391.10 420.51,390.62 419.78,389.32"/>
    </edge>
    <edge id=":1274023991_0" function="internal">
        <lane id=":1274023991_0_0" index="0" allow="delivery bicycle pedestrian" speed="5.56" length="9.26" shape="263.84,375.64 273.04,376.78"/>
    </edge>
    <edge id=":1274023991_1" function="internal">
        <lane id=":1274023991_1_0" index="0" allow="delivery bicycle pedestrian" speed="5.56" length="7.73" shape="263.84,375.64 266.52,376.26 268.37,377.14 269.37,378.29 269.54,379.69"/>
    </edge>
    <edge id=":1274023991_2" function="internal">
        <lane id=":1274023991_2_0" index="0" allow="delivery bicycle pedestrian" speed="5.56" length="7.81" shape="266.29,379.17 266.89,377.91 268.21,377.10 270.26,376.72 273.04,376.78"/>
    </edge>
    <edge id=":1274023991_3" function="internal">
        <lane id=":1274023991_3_0" index="0" allow="delivery bicycle pedestrian" speed="5.56" length="4.82" shape="266.29,379.17 267.30,378.08 268.18,377.80 268.93,378.34 269.54,379.69"/>
    </edge>
    <edge id=":1274023992_0" function="internal">
        <lane id=":1274023992_0_0" index="0" allow="delivery bicycle pedestrian" speed="4.17" length="11.14" shape="95.86,427.58 95.07,430.73 93.59,432.85 91.41,433.94 88.55,434.01"/>
    </edge>
    <edge id=":1274023992_1" function="internal">
        <lane id=":1274023992_1_0" index="0" allow="delivery bicycle pedestrian" speed="4.17" length="2.65" shape="95.86,427.58 94.89,428.70 94.03,429.01 93.83,428.88"/>
    </edge>
    <edge id=":1274023992_4" function="internal">
        <lane id=":1274023992_4_0" index="0" speed="4.17" length="2.17" shape="93.83,428.88 93.26,428.50 92.59,427.17"/>
    </edge>
    <edge id=":1274023992_2" function="internal">
        <lane id=":1274023992_2_0" index="0" allow="delivery bicycle pedestrian" speed="4.17" length="5.76" shape="89.00,430.74 90.39,430.68 91.45,430.07 92.18,428.90 92.59,427.17"/>
    </edge>
    <edge id=":1274023992_3" function="internal">
        <lane id=":1274023992_3_0" index="0" allow="delivery bicycle pedestrian" speed="4.17" length="2.16" shape="89.00,430.74 90.11,431.73 90.33,432.37"/>
    </edge>
    <edge id=":1274023992_5" function="internal">
        <lane id=":1274023992_5_0" index="0" speed="4.17" length="2.66" shape="90.33,432.37 90.41,432.60 89.89,433.36 88.55,434.01"/>
    </edge>
    <edge id=":1274023995_0" function="internal">
        <lane id=":1274023995_0_0" index="0" allow="delivery bicycle pedestrian" speed="4.17" length="10.29" shape="109.48,444.61 106.78,443.81 104.98,442.34 104.07,440.20 104.07,437.38"/>
    </edge>
    <edge id=":1274023995_1" function="internal">
        <lane id=":1274023995_1_0" index="0" allow="delivery bicycle pedestrian" speed="4.17" length="4.82" shape="109.48,444.61 108.38,443.62 108.09,442.74 108.62,441.99 109.96,441.35"/>