<?xml version="1.0" encoding="UTF-8"?>

<!-- generated on Mon May 14 14:00:03 2018 by SUMO polyconvert Version 0.32.0
<?xml version="1.0" encoding="UTF-8"?>

<configuration xmlns:xsi="http://www.w3.org/2001/XMLSchema-instance" xsi:noNamespaceSchemaLocation="http://sumo.dlr.de/xsd/polyconvertConfiguration.xsd">

    <input>
        <net-file value="navaga.net.xml"/>
        <osm-files value="navaga.osm"/>
        <type-file value="osmPolyconvert.typ.xml"/>
    </input>

    <output>
        <output-file value="navaga.poly.xml"/>
    </output>

    <processing>
        <poi-layer-offset value="5"/>
    </processing>

</configuration>
-->

<additional xmlns:xsi="http://www.w3.org/2001/XMLSchema-instance" xsi:noNamespaceSchemaLocation="http://sumo.dlr.de/xsd/additional_file.xsd">
    <location netOffset="-565164.06,-1784928.49" convBoundary="-799.22,-556.60,7122.54,4699.69" origBoundary="75.602007,16.138693,75.676166,16.186019" projParameter="+proj=utm +zone=43 +ellps=WGS84 +datum=WGS84 +units=m +no_defs"/>

    <poly id="251966855" type="tourism" color="207,245,201" fill="1" layer="-2.00" shape="3850.20,2591.96 3848.89,2665.94 3900.32,2666.84 3901.64,2592.86 3850.20,2591.96"/>
    <poly id="251973572" type="residential" color="235,235,227" fill="1" layer="-3.00" shape="3705.47,2781.88 3715.46,2466.99 4008.29,2474.69 3999.66,2787.69 3705.47,2781.88"/>
    <poly id="251973573" type="residential" color="235,235,227" fill="1" layer="-3.00" shape="4028.22,2476.39 4021.23,2787.76 4312.69,2796.01 4319.69,2483.54 4028.22,2476.39"/>
    <poly id="251973574" type="residential" color="235,235,227" fill="1" layer="-3.00" shape="3721.14,2172.07 3716.44,2452.51 4007.63,2460.20 4014.79,2179.77 3721.14,2172.07"/>
    <poly id="251973605" type="tourism" color="207,245,201" fill="1" layer="-2.00" shape="3838.10,2276.20 3836.51,2324.18 3894.76,2326.09 3896.35,2278.11 3838.10,2276.20"/>
    <poly id="251979395" type="landuse" color="194,194,130" fill="1" layer="-3.00" shape="4339.83,2482.52 4335.58,2793.36 4575.80,2799.29 4577.90,2721.17 4646.86,2723.01 4649.10,2577.61 4725.21,2578.04 4729.29,2506.45 4634.74,2416.11 4574.08,2415.53 4572.69,2489.25 4339.83,2482.52"/>
    <poly id="251979396" type="residential" color="235,235,227" fill="1" layer="-3.00" shape="4347.50,2186.62 4340.55,2467.64 4557.11,2472.95 4558.93,2399.53 4631.90,2401.32 4637.04,2193.71 4347.50,2186.62"/>
    <poly id="251979397" type="residential" color="235,235,227" fill="1" layer="-3.00" shape="4035.33,2179.58 4029.52,2461.64 4320.30,2467.57 4326.11,2185.51 4035.33,2179.58"/>
    <poly id="251979446" type="amenity" color="237,199,199" fill="1" layer="-1.00" shape="4575.80,2799.29 4577.90,2721.17 4646.86,2723.01 4644.76,2801.12 4575.80,2799.29"/>
    <poly id="251979447" type="tourism" color="207,245,201" fill="1" layer="-2.00" shape="4439.99,2348.00 4502.49,2349.52 4504.20,2279.20 4478.54,2278.57 4478.25,2290.39 4457.59,2289.89 4457.06,2311.68 4440.89,2311.30 4439.99,2348.00"/>
    <poly id="252025261" type="residential" color="235,235,227" fill="1" layer="-3.00" shape="4743.90,2512.35 4950.55,2517.13 4943.78,2806.12 4660.05,2799.54 4664.86,2594.18 4741.93,2595.96 4743.90,2512.35"/>
    <poly id="252025298" type="amenity" color="237,199,199" fill="1" layer="-1.00" shape="4872.68,2493.09 4874.47,2425.21 4950.45,2426.86 4948.94,2496.09 4872.68,2493.09"/>
    <poly id="252036195" type="building" color="255,230,230" fill="1" layer="-1.00" shape="5278.70,2472.39 5267.53,2472.24 5267.22,2497.53 5271.80,2497.59 5271.77,2500.57 5292.52,2500.83 5292.66,2490.25 5275.18,2490.02 5275.24,2485.18 5278.54,2485.22 5278.70,2472.39"/>
    <poly id="252036197" type="building" color="255,230,230" fill="1" layer="-1.00" shape="5331.87,2454.95 5384.51,2455.64 5384.73,2439.34 5375.61,2439.23 5375.65,2435.89 5368.92,2435.80 5369.04,2426.70 5347.93,2426.43 5347.81,2435.17 5340.15,2435.06 5340.08,2439.90 5332.07,2439.79 5331.87,2454.95"/>
    <poly id="252036199" type="water" color="181,209,209" fill="0" layer="-4.00" shape="6103.12,279.92 6106.12,307.72 6068.59,370.50 6066.40,496.45 6045.81,536.38 6040.45,590.55 6080.86,720.53 6114.72,754.84 6145.14,787.10 6386.43,900.55 6441.01,983.52 6521.37,1111.74 6520.61,1204.11 6531.99,1234.93 6554.99,1288.60 6567.67,1343.84 6595.56,1442.22 6598.06,1471.57 6597.00,1499.15 6574.10,1555.03 6544.55,1611.21 6545.59,1637.83 6536.77,1648.03 6523.84,1658.00 6481.20,1693.11 6420.79,1739.38 6393.53,1756.51 6393.25,1795.36 6376.47,1813.34 6336.02,1859.07 6297.77,1907.43 6294.11,1913.02 6295.46,1933.66 6292.13,1950.90 6273.30,1982.53 6190.91,2130.27 6163.53,2173.37 6158.66,2189.10 6145.90,2227.39 6108.07,2336.12 6098.32,2366.80 6096.48,2395.21 6101.77,2552.44 6061.63,2719.33 6056.72,2743.70 6063.03,2885.01 6053.70,2935.47 6051.51,2959.45 6053.97,2975.39 6063.54,3002.30 6077.57,3021.74 6092.79,3035.03 6154.08,3195.90 6166.17,3218.98 6165.95,3287.70 6176.78,3341.30 6160.28,3348.89 6148.92,3398.00 6149.83,3453.38"/>
    <poly id="252036202" type="amenity" color="237,199,199" fill="1" layer="-1.00" shape="5395.23,2455.40 5445.17,2455.90 5445.09,2463.76 5454.12,2463.86 5454.18,2457.09 5516.32,2457.72 5516.36,2453.58 5522.50,2453.65 5522.56,2447.56 5516.37,2447.50 5516.65,2420.50 5505.10,2420.37 5505.27,2404.30 5517.47,2404.43 5517.61,2389.69 5505.22,2389.56 5505.16,2395.55 5499.90,2395.50 5499.96,2389.41 5458.49,2388.99 5458.73,2366.30 5454.07,2366.26 5454.10,2363.13 5419.09,2362.78 5418.99,2372.07 5453.07,2372.41 5452.83,2396.01 5420.61,2395.69 5420.66,2390.43 5396.58,2390.19 5396.39,2407.61 5417.11,2407.81 5417.05,2414.60 5395.69,2414.38 5395.52,2431.52 5416.72,2431.74 5416.65,2438.46 5395.40,2438.25 5395.23,2455.40"/>
    <poly id="252036205" type="residential" color="235,235,227" fill="1" layer="-3.00" shape="5585.50,2219.97 5578.36,2221.10 5572.15,2228.57 5569.22,2239.69 5567.61,2497.89 5572.03,2505.77 5583.99,2510.61 5845.14,2514.14 5850.27,2301.44 5778.22,2298.52 5779.44,2221.93 5585.50,2219.97"/>
    <poly id="252036208" type="leisure" color="207,245,201" fill="1" layer="-2.00" shape="5272.76,2502.76 5516.35,2507.92 5521.99,2501.59 5533.22,2502.08 5539.75,2507.54 5544.78,2501.97 5550.14,2488.55 5554.27,2243.14 5550.78,2241.32 5550.07,2227.72 5540.06,2221.20 5270.64,2215.81 5267.94,2349.00 5266.35,2465.28 5265.95,2494.13 5268.37,2498.96 5272.76,2502.76"/>
    <poly id="252036210" type="residential" color="235,235,227" fill="1" layer="-3.00" shape="5053.67,2209.48 5045.53,2285.87 4970.46,2284.42 4965.50,2497.32 5235.18,2502.45 5244.23,2496.72 5248.11,2489.67 5248.80,2479.64 5253.95,2214.39 5053.67,2209.48"/>
    <poly id="252036212" type="farm" color="242,242,204" fill="1" layer="-3.00" shape="4660.24,2195.86 4656.69,2405.77 4746.53,2490.18 4872.68,2493.09 4874.47,2425.21 4950.45,2426.86 4954.98,2265.21 5031.11,2267.87 5037.82,2211.87 5033.87,2209.74 4954.21,2127.47 4932.18,2126.65 4932.35,2166.06 4893.60,2165.34 4893.18,2203.24 4660.24,2195.86"/>
    <poly id="252036214" type="residential" color="235,235,227" fill="1" layer="-3.00" shape="4962.93,2517.06 4957.05,2807.92 5241.14,2815.03 5247.61,2540.39 5240.33,2529.90 5230.46,2524.96 4962.93,2517.06"/>
    <poly id="252036216" type="residential" color="235,235,227" fill="1" layer="-3.00" shape="5263.93,2527.44 5551.44,2531.69 5545.71,2802.61 5531.06,2818.57 5256.33,2814.06 5263.93,2527.44"/>
    <poly id="252036218" type="residential" color="235,235,227" fill="1" layer="-3.00" shape="5587.25,2531.55 5575.25,2534.97 5566.33,2546.07 5565.15,2554.32 5560.48,2802.52 5568.36,2815.80 5579.35,2822.94 5842.05,2825.51 5846.08,2534.88 5587.25,2531.55"/>
    <poly id="252036220" type="farm" color="242,242,204" fill="1" layer="-3.00" shape="5862.42,2539.47 5857.83,2824.72 6053.71,2821.71 6049.92,2737.62 6096.92,2541.95 5862.42,2539.47"/>
    <poly id="252036222" type="farm" color="242,242,204" fill="1" layer="-3.00" shape="6107.39,2517.13 6179.18,2448.68 6240.09,2449.14 6238.21,2524.34 6473.94,2531.89 6471.97,2632.07 6464.49,2665.16 6434.58,2707.69 6401.42,2736.90 6337.39,2773.34 6283.76,2800.31 6243.32,2802.90 6068.17,2815.91 6064.58,2745.58 6107.28,2551.06 6107.39,2517.13"/>
    <poly id="252036224" type="residential" color="235,235,227" fill="1" layer="-3.00" shape="6184.17,2227.56 6180.83,2431.30 6255.39,2432.52 6254.15,2508.26 6473.50,2511.83 6478.09,2232.34 6184.17,2227.56"/>
    <poly id="252036228" type="tourism" color="207,245,201" fill="1" layer="-2.00" shape="5868.67,2225.25 6162.60,2228.64 6158.66,2432.79 6129.61,2464.19 6075.09,2512.07 6057.86,2517.43 6042.29,2517.12 5862.00,2514.09 5868.67,2225.25"/>
    <poly id="252036601" type="amenity" color="237,199,199" fill="1" layer="-1.00" shape="5458.07,2423.21 5484.43,2422.84 5484.59,2434.02 5492.21,2433.91 5492.06,2423.64 5500.14,2423.53 5499.99,2413.47 5485.10,2413.69 5485.00,2406.70 5476.57,2406.82 5476.66,2413.16 5457.93,2413.42 5458.07,2423.21"/>
    <poly id="252036603" type="amenity" color="237,199,199" fill="1" layer="-1.00" shape="5454.98,2444.01 5499.63,2444.57 5499.72,2437.31 5455.07,2436.75 5454.98,2444.01"/>
    <poly id="252036605" type="amenity" color="237,199,199" fill="1" layer="-1.00" shape="5424.31,2444.86 5444.15,2445.55 5444.29,2441.50 5450.00,2441.71 5450.17,2436.78 5424.62,2435.89 5424.31,2444.86"/>
    <poly id="252036606" type="amenity" color="237,199,199" fill="1" layer="-1.00" shape="5423.81,2419.32 5432.82,2419.49 5432.59,2432.45 5436.62,2432.52 5436.85,2419.53 5449.92,2419.77 5450.09,2410.87 5423.98,2410.39 5423.81,2419.32"/>
    <poly id="252040683" type="leisure" color="207,245,201" fill="1" layer="-2.00" shape="5620.15,1918.74 5856.95,1923.96 5854.07,2133.05 5781.49,2201.33 5591.05,2197.51 5577.36,2190.85 5572.56,2180.42 5575.45,2098.52 5577.06,1972.93 5587.21,1947.33 5603.21,1925.94 5613.71,1918.98 5620.15,1918.74"/>
    <poly id="252040684" type="residential" color="235,235,227" fill="1" layer="-3.00" shape="5879.07,1924.07 6171.18,1930.49 6163.42,2210.47 5950.21,2206.78 5952.48,2129.88 5877.51,2127.83 5879.07,1924.07"/>
    <poly id="252040685" type="residential" color="235,235,227" fill="1" layer="-3.00" shape="6191.02,1930.35 6185.72,2213.26 6477.02,2218.66 6482.32,1935.76 6191.02,1930.35"/>
    <poly id="252055089" type="residential" color="235,235,227" fill="1" layer="-3.00" shape="4353.64,1888.81 4346.48,2172.04 4638.03,2178.35 4646.62,1896.82 4353.64,1888.81"/>
    <poly id="252055090" type="residential" color="235,235,227" fill="1" layer="-3.00" shape="4667.43,1895.47 4659.68,2179.54 4875.15,2185.05 4878.81,2107.45 4951.78,2107.39 4957.27,1903.75 4667.43,1895.47"/>
    <poly id="252055091" type="residential" color="235,235,227" fill="1" layer="-3.00" shape="5222.64,1907.89 5259.57,1945.68 5255.92,2194.65 5045.02,2190.02 4974.01,2114.16 4977.25,1902.86 5222.64,1907.89"/>
    <poly id="252055092" type="residential" color="235,235,227" fill="1" layer="-3.00" shape="5273.24,1947.43 5271.04,2192.72 5542.36,2196.42 5557.79,2183.73 5562.51,1954.87 5273.24,1947.43"/>
    <poly id="252055093" type="residential" color="235,235,227" fill="1" layer="-3.00" shape="5278.00,1578.56 5251.30,1607.12 5247.97,1897.93 5275.81,1925.36 5560.38,1932.08 5590.53,1908.80 5597.18,1614.80 5569.19,1586.95 5278.00,1578.56"/>
    <poly id="252055094" type="residential" color="235,235,227" fill="1" layer="-3.00" shape="4987.06,1603.00 4978.92,1887.06 5223.49,1893.97 5231.61,1609.92 4987.06,1603.00"/>
    <poly id="252055095" type="residential" color="235,235,227" fill="1" layer="-3.00" shape="4675.49,1596.13 4668.06,1879.93 4956.20,1887.39 4963.64,1603.60 4675.49,1596.13"/>
    <poly id="252055096" type="residential" color="235,235,227" fill="1" layer="-3.00" shape="4361.45,1589.70 4653.47,1596.75 4646.54,1880.24 4354.53,1873.19 4361.45,1589.70"/>
    <poly id="252055097" type="residential" color="235,235,227" fill="1" layer="-3.00" shape="4659.35,1299.55 4367.22,1293.24 4362.64,1572.24 4652.48,1580.53 4659.35,1299.55"/>
    <poly id="252055098" type="residential" color="235,235,227" fill="1" layer="-3.00" shape="4368.34,1276.44 4660.19,1283.88 4664.84,1076.26 4590.30,1075.76 4591.35,1001.84 4373.29,996.35 4368.34,1276.44"/>
    <poly id="252055100" type="residential" color="235,235,227" fill="1" layer="-3.00" shape="4071.36,668.32 4064.15,971.96 4354.27,978.77 4361.48,675.14 4071.36,668.32"/>
    <poly id="252055101" type="residential" color="235,235,227" fill="1" layer="-3.00" shape="4065.31,988.83 4058.19,1269.44 4346.57,1275.15 4353.92,995.35 4065.31,988.83"/>
    <poly id="252055102" type="residential" color="235,235,227" fill="1" layer="-3.00" shape="4050.23,1565.31 4338.21,1573.03 4346.61,1291.70 4056.20,1284.97 4050.23,1565.31"/>
    <poly id="252055103" type="residential" color="235,235,227" fill="1" layer="-3.00" shape="4049.90,1581.10 4042.40,1865.89 4333.42,1873.47 4340.91,1588.68 4049.90,1581.10"/>
    <poly id="252055104" type="residential" color="235,235,227" fill="1" layer="-3.00" shape="4043.89,1880.40 4036.33,2164.72 4325.64,2172.32 4333.20,1888.00 4043.89,1880.40"/>
    <poly id="252055105" type="residential" color="235,235,227" fill="1" layer="-3.00" shape="3729.79,1870.70 4019.91,1878.97 4013.03,2164.48 3726.05,2157.06 3729.79,1870.70"/>
    <poly id="252055106" type="residential" color="235,235,227" fill="1" layer="-3.00" shape="3739.14,1573.34 3731.40,1856.33 4020.99,1863.85 4028.94,1579.66 3739.14,1573.34"/>
    <poly id="252055107" type="residential" color="235,235,227" fill="1" layer="-3.00" shape="3744.23,1277.30 4035.08,1284.30 4029.50,1563.87 3739.79,1557.30 3744.23,1277.30"/>
    <poly id="252055108" type="residential" color="235,235,227" fill="1" layer="-3.00" shape="4043.17,988.94 3751.76,980.61 3745.85,1261.81 4035.64,1267.73 4043.17,988.94"/>
    <poly id="252055109" type="residential" color="235,235,227" fill="1" layer="-3.00" shape="4050.78,666.64 3759.34,659.39 3751.67,964.82 4043.10,972.07 4050.78,666.64"/>
    <poly id="252055581" type="tourism" color="207,245,201" fill="1" layer="-2.00" shape="4508.64,1081.23 4535.28,1083.16 4536.83,1046.90 4509.74,1047.53 4508.64,1081.23"/>
    <poly id="252055583" type="tourism" color="207,245,201" fill="1" layer="-2.00" shape="3891.59,778.24 3889.15,851.59 3944.16,853.39 3946.60,780.03 3891.59,778.24"/>
    <poly id="252055585" type="tourism" color="207,245,201" fill="1" layer="-2.00" shape="3866.19,1116.83 3921.65,1117.32 3921.24,1162.94 3865.77,1162.44 3866.19,1116.83"/>
    <poly id="252055587" type="amenity" color="237,199,199" fill="1" layer="-1.00" shape="3937.38,1579.17 3935.77,1650.86 4026.17,1652.87 4027.77,1581.18 3937.38,1579.17"/>
    <poly id="252060608" type="residential" color="235,235,227" fill="1" layer="-3.00" shape="6475.67,1634.66 6213.74,1629.34 6204.64,1634.30 6198.82,1642.92 6198.03,1649.07 6193.70,1913.03 6260.91,1914.97 6287.20,1910.64 6304.01,1911.09 6323.89,1916.71 6480.92,1920.10 6483.38,1819.32 6478.39,1806.64 6467.60,1797.77 6461.44,1792.75 6451.98,1790.61 6453.42,1761.82 6462.52,1760.31 6474.90,1751.91 6482.86,1740.80 6485.02,1726.79 6486.25,1647.70 6483.77,1640.40 6475.67,1634.66"/>
    <poly id="252060609" type="residential" color="235,235,227" fill="1" layer="-3.00" shape="6160.91,1629.34 5904.38,1625.06 5894.33,1630.20 5887.92,1638.43 5887.12,1646.50 5883.93,1736.91 5888.35,1745.19 5895.09,1751.54 5894.61,1780.72 5889.19,1784.35 5884.53,1790.47 5880.88,1905.46 6169.26,1911.58 6174.39,1643.21 6170.73,1637.05 6160.91,1629.34"/>
    <poly id="252060610" type="residential" color="235,235,227" fill="1" layer="-3.00" shape="5619.63,1618.64 5853.74,1623.42 5860.68,1626.13 5863.75,1633.24 5864.01,1734.42 5860.69,1744.59 5854.88,1749.75 5849.85,1751.84 5848.98,1780.26 5855.74,1784.31 5860.35,1788.55 5861.11,1796.23 5857.86,1905.84 5613.31,1901.41 5619.63,1618.64"/>
    <poly id="252060611" type="residential" color="235,235,227" fill="1" layer="-3.00" shape="4680.97,1299.98 4675.44,1581.92 4963.08,1587.59 4969.74,1382.08 4892.85,1379.39 4893.91,1304.73 4680.97,1299.98"/>
    <poly id="252060612" type="residential" color="235,235,227" fill="1" layer="-3.00" shape="5063.01,1308.36 4989.85,1378.41 4984.27,1588.67 5233.12,1594.90 5265.20,1556.31 5273.04,1329.76 5269.51,1321.88 5261.61,1314.93 5253.42,1313.68 5063.01,1308.36"/>
    <poly id="252060613" type="residential" color="235,235,227" fill="1" layer="-3.00" shape="5305.04,1314.17 5291.88,1326.41 5287.59,1335.61 5280.51,1556.57 5568.52,1563.24 5574.64,1340.94 5564.64,1327.67 5555.78,1319.00 5305.04,1314.17"/>
    <poly id="252060614" type="residential" color="235,235,227" fill="1" layer="-3.00" shape="5586.79,1329.81 5593.96,1323.12 5619.66,1320.51 5800.07,1325.32 5869.77,1399.06 5867.39,1595.84 5853.63,1607.32 5615.66,1603.29 5584.28,1568.82 5586.79,1329.81"/>
    <poly id="252060615" type="residential" color="235,235,227" fill="1" layer="-3.00" shape="5887.09,1593.92 5893.05,1602.95 5903.66,1607.21 6161.54,1611.12 6173.75,1599.45 6177.65,1588.33 6180.99,1331.65 5967.15,1327.12 5964.79,1402.37 5890.80,1400.98 5887.09,1593.92"/>
    <poly id="252060616" type="residential" color="235,235,227" fill="1" layer="-3.00" shape="6201.47,1330.68 6200.98,1598.87 6214.85,1613.51 6486.63,1617.28 6490.88,1338.08 6201.47,1330.68"/>
    <poly id="252060830" type="tourism" color="207,245,201" fill="1" layer="-2.00" shape="4982.51,997.37 4775.44,990.57 4684.95,1075.90 4682.17,1283.05 4912.62,1288.77 4909.87,1363.44 4971.88,1364.03 5049.19,1289.97 5049.38,1228.35 4976.56,1226.38 4982.51,997.37"/>
    <poly id="252063100" type="building" color="255,230,230" fill="1" layer="-1.00" shape="5347.97,1125.42 5369.19,1125.70 5368.66,1166.95 5347.43,1166.67 5347.97,1125.42"/>
    <poly id="252063101" type="building" color="255,230,230" fill="1" layer="-1.00" shape="5356.70,1119.57 5359.14,1095.83 5369.42,1074.62 5381.42,1057.64 5400.65,1039.73 5422.38,1027.92 5439.68,1024.07 5459.34,1023.51 5479.76,1026.85 5502.20,1040.83 5514.57,1052.28 5528.97,1072.94 5535.04,1092.33 5535.62,1107.34 5533.60,1198.24 5525.35,1222.90 5516.65,1237.40 5501.20,1252.97 5484.19,1262.76 5465.31,1268.79 5446.13,1270.76 5428.06,1267.74 5409.69,1263.14 5389.45,1249.96 5378.65,1236.02 5360.83,1204.41 5355.85,1187.83 5355.26,1174.39 5370.72,1174.47 5370.41,1186.28 5376.57,1203.96 5388.72,1225.22 5405.82,1242.26 5425.42,1253.40 5444.12,1257.06 5464.24,1257.28 5484.70,1249.53 5498.41,1239.90 5510.24,1225.72 5518.46,1209.19 5522.77,1189.83 5524.16,1100.16 5520.30,1081.72 5510.59,1067.00 5498.22,1053.53 5481.75,1041.60 5454.42,1035.58 5435.55,1038.64 5417.61,1045.31 5402.96,1054.94 5390.33,1069.58 5385.20,1075.63 5377.82,1090.86 5372.87,1112.28 5372.33,1119.77 5356.70,1119.57"/>
    <poly id="252063105" type="residential" color="235,235,227" fill="1" layer="-3.00" shape="6205.36,1111.27 6201.86,1316.84 6490.44,1320.89 6493.82,1246.87 6458.55,1168.33 6402.07,1039.10 6280.73,1036.53 6278.60,1112.75 6205.36,1111.27"/>
    <poly id="252063106" type="leisure" color="207,245,201" fill="1" layer="-2.00" shape="5812.00,1243.54 5811.96,1306.80 5885.64,1384.53 5949.61,1385.99 5950.17,1310.31 6001.82,1311.63 6181.16,1315.18 6183.88,1106.64 6101.79,1021.55 5905.79,1017.16 5893.03,1026.50 5888.71,1244.87 5812.00,1243.54"/>
    <poly id="252063107" type="residential" color="235,235,227" fill="1" layer="-3.00" shape="5614.99,1008.36 5596.47,1029.74 5589.65,1281.34 5595.85,1293.30 5608.26,1301.95 5797.43,1306.54 5799.69,1225.91 5872.15,1228.12 5877.88,1033.73 5861.72,1014.69 5614.99,1008.36"/>
    <poly id="252063108" type="landuse" color="194,194,130" fill="1" layer="-3.00" shape="5295.31,1004.29 5562.72,1010.23 5570.92,1015.12 5576.90,1024.85 5577.96,1036.13 5574.28,1283.33 5572.04,1289.51 5557.79,1297.86 5305.95,1291.31 5296.63,1284.65 5290.66,1274.91 5295.31,1004.29"/>
    <poly id="252063109" type="residential" color="235,235,227" fill="1" layer="-3.00" shape="4998.58,996.38 4994.60,1209.76 5065.64,1210.61 5065.87,1286.07 5259.35,1290.12 5269.44,1282.82 5275.91,1273.93 5280.18,1018.50 5271.54,1007.87 5264.22,1004.76 5249.11,1002.28 4998.58,996.38"/>
    <poly id="252063110" type="residential" color="235,235,227" fill="1" layer="-3.00" shape="4707.73,677.17 4704.87,884.93 4782.05,885.79 4779.42,968.74 4982.19,973.60 4990.17,685.26 4707.73,677.17"/>
    <poly id="252063111" type="residential" color="235,235,227" fill="1" layer="-3.00" shape="5004.54,684.00 4998.42,974.07 5281.13,979.98 5287.26,689.91 5004.54,684.00"/>
    <poly id="252063112" type="residential" color="235,235,227" fill="1" layer="-3.00" shape="5302.07,693.90 5298.75,965.10 5303.09,972.99 5312.36,978.72 5323.02,980.92 5562.57,986.85 5575.17,978.75 5578.19,971.15 5584.54,697.23 5302.07,693.90"/>
    <poly id="252063113" type="residential" color="235,235,227" fill="1" layer="-3.00" shape="5599.52,698.88 5881.15,704.58 5876.61,974.87 5875.04,980.05 5865.16,990.57 5860.51,993.43 5611.54,988.42 5594.80,966.67 5599.52,698.88"/>
    <poly id="252063114" type="residential" color="235,235,227" fill="1" layer="-3.00" shape="5890.67,978.63 5909.73,995.70 6114.55,1000.06 6185.59,1000.60 6189.98,812.53 6141.13,794.30 6074.88,728.69 6066.49,708.57 5895.56,704.92 5890.67,978.63"/>
    <poly id="252063115" type="residential" color="235,235,227" fill="1" layer="-3.00" shape="6189.98,812.53 6185.59,1000.60 6114.55,1000.06 6206.03,1097.52 6267.02,1096.16 6268.84,1020.24 6462.17,1026.81 6384.86,904.74 6189.98,812.53"/>
    <poly id="252063443" type="leisure" color="207,245,201" fill="1" layer="-2.00" shape="5385.20,1075.63 5377.82,1090.86 5372.87,1112.28 5372.33,1119.77 5370.72,1174.47 5370.41,1186.28 5376.57,1203.96 5388.72,1225.22 5405.82,1242.26 5425.42,1253.40 5444.12,1257.06 5464.24,1257.28 5484.70,1249.53 5498.41,1239.90 5510.24,1225.72 5518.46,1209.19 5522.77,1189.83 5524.16,1100.16 5520.30,1081.72 5510.59,1067.00 5498.22,1053.53 5481.75,1041.60 5454.42,1035.58 5435.55,1038.64 5417.61,1045.31 5402.96,1054.94 5390.33,1069.58 5385.20,1075.63"/>
    <poly id="252063443#1" type="sport" color="79,230,125" fill="1" layer="-2.00" shape="5385.20,1075.63 5377.82,1090.86 5372.87,1112.28 5372.33,1119.77 5370.72,1174.47 5370.41,1186.28 5376.57,1203.96 5388.72,1225.22 5405.82,1242.26 5425.42,1253.40 5444.12,1257.06 5464.24,1257.28 5484.70,1249.53 5498.41,1239.90 5510.24,1225.72 5518.46,1209.19 5522.77,1189.83 5524.16,1100.16 5520.30,1081.72 5510.59,1067.00 5498.22,1053.53 5481.75,1041.60 5454.42,1035.58 5435.55,1038.64 5417.61,1045.31 5402.96,1054.94 5390.33,1069.58 5385.20,1075.63"/>
    <poly id="252063444" type="leisure" color="207,245,201" fill="1" layer="-2.00" shape="5296.73,1216.02 5326.47,1216.76 5324.97,1276.39 5295.23,1275.64 5296.73,1216.02"/>
    <poly id="252063444#1" type="sport" color="79,230,125" fill="1" layer="-2.00" shape="5296.73,1216.02 5326.47,1216.76 5324.97,1276.39 5295.23,1275.64 5296.73,1216.02"/>
    <poly id="252063445" type="tourism" color="207,245,201" fill="1" layer="-2.00" shape="5178.86,952.55 5230.21,953.50 5230.76,924.32 5179.41,923.37 5178.86,952.55"/>
    <poly id="252063446" type="amenity" color="237,199,199" fill="1" layer="-1.00" shape="4710.46,656.65 4989.08,661.35 4995.41,390.68 4716.51,384.91 4710.46,656.65"/>
    <poly id="252063447" type="leisure" color="207,245,201" fill="1" layer="-2.00" shape="5296.52,1049.27 5321.51,1049.94 5320.31,1093.20 5295.33,1092.53 5296.52,1049.27"/>
    <poly id="252063447#1" type="sport" color="79,230,125" fill="1" layer="-2.00" shape="5296.52,1049.27 5321.51,1049.94 5320.31,1093.20 5295.33,1092.53 5296.52,1049.27"/>
    <poly id="252063448" type="tourism" color="207,245,201" fill="1" layer="-2.00" shape="5032.65,711.30 5031.61,752.90 5078.13,754.04 5079.16,712.44 5032.65,711.30"/>
    <poly id="252063449" type="tourism" color="207,245,201" fill="1" layer="-2.00" shape="5227.22,715.73 5226.04,757.05 5260.25,758.02 5261.43,716.69 5227.22,715.73"/>
    <poly id="252063450" type="leisure" color="207,245,201" fill="1" layer="-2.00" shape="5297.76,1005.30 5322.74,1005.97 5321.56,1049.24 5296.57,1048.56 5297.76,1005.30"/>
    <poly id="252063450#1" type="sport" color="79,230,125" fill="1" layer="-2.00" shape="5297.76,1005.30 5322.74,1005.97 5321.56,1049.24 5296.57,1048.56 5297.76,1005.30"/>
    <poly id="252063451" type="tourism" color="207,245,201" fill="1" layer="-2.00" shape="5890.79,1245.45 6117.26,1258.34 6132.50,1085.63 5958.70,1073.13 5957.12,1081.52 5893.33,1077.01 5890.79,1245.45"/>
    <poly id="252063452" type="amenity" color="237,199,199" fill="1" layer="-1.00" shape="4815.14,1156.30 4824.99,1147.81 4837.47,1148.71 4844.99,1157.87 4844.25,1170.68 4834.79,1178.85 4822.22,1178.34 4814.54,1168.24 4815.14,1156.30"/>
    <poly id="252070367" type="residential" color="235,235,227" fill="1" layer="-3.00" shape="3447.94,645.69 3442.73,956.30 3730.54,961.03 3740.76,657.36 3447.94,645.69"/>
    <poly id="252070368" type="residential" color="235,235,227" fill="1" layer="-3.00" shape="3727.73,978.58 3440.71,970.01 3434.43,1249.89 3721.84,1257.31 3727.73,978.58"/>
    <poly id="252070369" type="residential" color="235,235,227" fill="1" layer="-3.00" shape="3419.85,969.18 3128.19,960.59 3121.14,1242.01 3410.87,1249.05 3419.85,969.18"/>
    <poly id="252070370" type="residential" color="235,235,227" fill="1" layer="-3.00" shape="3137.21,633.78 3427.32,644.67 3420.37,954.49 3128.13,945.72 3137.21,633.78"/>
    <poly id="252070975" type="residential" color="235,235,227" fill="1" layer="-3.00" shape="4561.64,2821.70 4584.96,3206.67 4649.48,3205.72 5078.94,3064.84 5089.18,3062.18 5095.31,2896.73 5097.64,2834.15 4561.64,2821.70"/>
    <poly id="328551430" type="residential" color="235,235,227" fill="1" layer="-3.00" shape="3113.67,1557.48 3405.93,1565.77 3402.23,1694.54 3109.97,1686.26 3113.67,1557.48"/>
    <poly id="328551431" type="residential" color="235,235,227" fill="1" layer="-3.00" shape="3433.28,1267.92 3721.45,1274.55 3714.86,1557.96 3426.69,1551.32 3433.28,1267.92"/>
    <poly id="328551432" type="residential" color="235,235,227" fill="1" layer="-3.00" shape="3422.75,1718.25 3711.38,1726.05 3707.79,1857.53 3419.16,1849.74 3422.75,1718.25"/>
    <poly id="328551433" type="residential" color="235,235,227" fill="1" layer="-3.00" shape="3413.29,2162.91 3700.98,2169.97 3693.91,2455.03 3406.22,2447.97 3413.29,2162.91"/>
    <poly id="328551434" type="residential" color="235,235,227" fill="1" layer="-3.00" shape="3426.13,1565.38 3714.43,1573.28 3710.80,1704.35 3422.51,1696.44 3426.13,1565.38"/>
    <poly id="328551435" type="residential" color="235,235,227" fill="1" layer="-3.00" shape="3120.37,1260.72 3411.45,1267.85 3404.44,1551.05 3113.37,1543.93 3120.37,1260.72"/>
    <poly id="328551436" type="residential" color="235,235,227" fill="1" layer="-3.00" shape="3420.55,1863.55 3707.98,1870.45 3701.04,2156.08 3413.62,2149.17 3420.55,1863.55"/>
    <poly id="328551437" type="residential" color="235,235,227" fill="1" layer="-3.00" shape="3110.11,1711.21 3402.70,1716.45 3400.28,1849.88 3107.71,1844.64 3110.11,1711.21"/>
    <poly id="328551438" type="residential" color="235,235,227" fill="1" layer="-3.00" shape="3092.87,2453.72 3382.69,2459.65 3376.56,2756.10 3086.75,2750.17 3092.87,2453.72"/>
    <poly id="398348965" type="amenity" color="237,199,199" fill="1" layer="-1.00" shape="6239.48,2838.46 6225.37,2943.28 6321.27,3083.69 6419.73,3103.50 6534.47,3087.91 6780.24,3028.19 6957.14,2916.03 6955.70,2653.84 6944.52,2600.12 7073.68,2388.51 7117.67,2230.44 7122.54,2148.37 7056.62,1996.31 7095.90,1874.70 7101.69,1860.76 7068.58,1843.60 7031.93,1829.80 6988.36,1823.96 6914.08,1954.06 6911.06,1959.36 6868.45,2011.66 6838.61,2017.26 6764.04,2020.43 6705.44,2049.88 6619.60,1996.02 6508.31,2003.64 6493.67,2605.66 6488.88,2668.28 6439.29,2750.19 6332.42,2810.26 6239.48,2838.46"/>
    <poly id="475657058" type="farm" color="242,242,204" fill="1" layer="-3.00" shape="4373.99,983.20 4605.12,987.91 4602.59,1062.01 4666.83,1063.36 4764.63,967.90 4767.15,898.94 4689.14,899.26 4696.73,678.13 4385.29,677.14 4373.99,983.20"/>
    <poi id="1467576469" type="tourism" color="207,245,201" layer="3.00" x="5749.34" y="2077.68"/>
    <poi id="1467585255" type="amenity" color="237,199,199" layer="4.00" x="5574.48" y="1699.87"/>
    <poi id="1467586095" type="building" color="255,230,230" layer="4.00" x="5757.08" y="1635.42"/>
    <poi id="2372982439" type="shop" color="237,199,255" layer="4.00" x="4371.24" y="2289.98"/>
    <poi id="2373282370" type="shop" color="237,199,255" layer="4.00" x="4155.43" y="2489.72"/>
    <poi id="2581558283" type="man_made" color="255,230,230" layer="4.00" x="4683.85" y="2225.23"/>
    <poi id="2581715530" type="man_made" color="255,230,230" layer="4.00" x="3895.74" y="1138.23"/>
    <poi id="2581816714" type="man_made" color="255,230,230" layer="4.00" x="4708.26" y="1259.09"/>
    <poi id="2581874172" type="man_made" color="255,230,230" layer="4.00" x="5919.95" y="1157.71"/>
</additional>
