<!--?xml version="1.0" encoding="iso-8859-1"?-->
<configuration>
	<input>
		<net-file value="navaga.net.xml"/>
		<route-files value="navaga.rou.xml"/>
		<!--additional-files value="navaga.add.xml"/-->
	</input>
	<time>
		<begin value="0"/>
		<end value="100"/>
		<step-length value="0.1"/>
	</time>
</configuration>
