<?xml version="1.0" encoding="UTF-8"?>
<!-- generated on 2018-05-14 14:05:34.970860 by $Id$
  options: -n navaga.net.xml -r navaga.rou.xml -e 50 -l
-->
<routes xmlns:xsi="http://www.w3.org/2001/XMLSchema-instance" xsi:noNamespaceSchemaLocation="http://sumo.dlr.de/xsd/routes_file.xsd">
    <trip id="0" depart="0.00" from="251966796#0" to="252055126#5"/>
    <trip id="1" depart="1.00" from="252025284#6" to="252055298#16"/>
    <trip id="2" depart="2.00" from="252060824#0" to="252070378#7"/>
    <trip id="3" depart="3.00" from="251966801#10" to="252055296#30"/>
    <trip id="4" depart="4.00" from="252070378#24" to="252070377#9"/>
    <trip id="5" depart="5.00" from="251979399#24" to="252055468#15"/>
    <trip id="6" depart="6.00" from="252025294#7" to="252070378#1"/>
    <trip id="7" depart="7.00" from="252055297#17" to="252055432#18"/>
    <trip id="8" depart="8.00" from="252055126#3" to="252055297#34"/>
    <trip id="9" depart="9.00" from="252055294#13" to="251966829#1"/>
    <trip id="10" depart="10.00" from="252040727#23" to="252070377#4"/>
    <trip id="11" depart="11.00" from="252036507#15" to="252060629#10"/>
    <trip id="12" depart="12.00" from="252055296#0" to="252036507#34"/>
    <trip id="13" depart="13.00" from="252055296#30" to="251966793#20"/>
    <trip id="14" depart="14.00" from="252070378#7" to="252036507#34"/>
    <trip id="15" depart="15.00" from="252025284#8" to="252055432#18"/>
    <trip id="16" depart="16.00" from="252040686#5" to="252060623#5"/>
    <trip id="17" depart="17.00" from="252055294#25" to="251966798#13"/>
    <trip id="18" depart="18.00" from="252055432#22" to="252025284#2"/>
    <trip id="19" depart="19.00" from="252040763#2" to="252055115#7"/>
    <trip id="20" depart="20.00" from="251966824#27" to="252040704#1"/>
    <trip id="21" depart="21.00" from="251966796#4" to="252025291#11"/>
    <trip id="22" depart="22.00" from="251966796#0" to="252040757#3"/>
    <trip id="23" depart="23.00" from="252055468#2" to="252055115#10"/>
    <trip id="24" depart="24.00" from="252055468#0" to="252060623#7"/>
    <trip id="25" depart="25.00" from="252060628#10" to="252055188#10"/>
    <trip id="26" depart="26.00" from="251979399#5" to="252070375#12"/>
    <trip id="27" depart="27.00" from="252040763#0" to="252055185#13"/>
    <trip id="28" depart="28.00" from="251966796#0" to="252055298#29"/>
    <trip id="29" depart="29.00" from="251979399#1" to="252036507#34"/>
    <trip id="30" depart="30.00" from="252036298#0" to="251979399#20"/>
    <trip id="31" depart="31.00" from="251966812#10" to="264800596"/>
    <trip id="32" depart="32.00" from="252036507#4" to="252070378#1"/>
    <trip id="33" depart="33.00" from="252060618#2" to="251966812#7"/>
    <trip id="34" depart="34.00" from="252055296#12" to="252040727#14"/>
    <trip id="35" depart="35.00" from="252055296#21" to="252055294#14"/>
    <trip id="36" depart="36.00" from="252070377#15" to="252036596#2"/>
    <trip id="37" depart="37.00" from="252040686#0" to="252055294#4"/>
    <trip id="38" depart="38.00" from="252060824#1" to="252055297#2"/>
    <trip id="39" depart="39.00" from="252060628#15" to="252025284#9"/>
    <trip id="40" depart="40.00" from="252070375#4" to="252060629#14"/>
    <trip id="41" depart="41.00" from="251966793#22" to="251966796#15"/>
    <trip id="42" depart="42.00" from="251966799#22" to="251966812#0"/>
    <trip id="43" depart="43.00" from="252036298#17" to="251966796#3"/>
    <trip id="44" depart="44.00" from="252040727#17" to="127555916#1"/>
    <trip id="45" depart="45.00" from="252055296#33" to="252060623#3"/>
    <trip id="46" depart="46.00" from="251966796#0" to="252055432#11"/>
    <trip id="47" depart="47.00" from="252036507#34" to="252070375#13"/>
    <trip id="48" depart="48.00" from="251973603#11" to="251966799#25"/>
    <trip id="49" depart="49.00" from="252025262#2" to="252055297#22"/>
</routes>
