<?xml version="1.0" encoding="UTF-8"?>

<!-- generated on Fri May 11 18:32:47 2018 by SUMO netconvert Version 0.32.0
<?xml version="1.0" encoding="UTF-8"?>

<configuration xmlns:xsi="http://www.w3.org/2001/XMLSchema-instance" xsi:noNamespaceSchemaLocation="http://sumo.dlr.de/xsd/netconvertConfiguration.xsd">

    <input>
        <type-files value="/usr/share/sumo/data/typemap/osmNetconvertUrbanDe.typ.xml"/>
        <osm-files value="navaga.osm"/>
    </input>

    <output>
        <output-file value="2navaga.net.xml"/>
    </output>

    <projection>
        <proj.utm value="true"/>
    </projection>

</configuration>
-->

<net version="0.27" xmlns:xsi="http://www.w3.org/2001/XMLSchema-instance" xsi:noNamespaceSchemaLocation="http://sumo.dlr.de/xsd/net_file.xsd">

    <location netOffset="-565164.06,-1784928.49" convBoundary="0.00,0.00,6756.87,4395.67" origBoundary="75.609561,16.143573,75.672730,16.183280" projParameter="+proj=utm +zone=43 +ellps=WGS84 +datum=WGS84 +units=m +no_defs"/>

    <type id="highway.bus_guideway" speed="13.89"/>
    <type id="highway.motorway" speed="27.78"/>
    <type id="highway.motorway_link" speed="16.67"/>
    <type id="highway.primary" speed="13.89"/>
    <type id="highway.primary_link" speed="13.89"/>
    <type id="highway.secondary" speed="13.89"/>
    <type id="highway.secondary_link" speed="13.89"/>
    <type id="highway.tertiary" speed="13.89"/>
    <type id="highway.tertiary_link" speed="13.89"/>
    <type id="highway.trunk" speed="13.89"/>
    <type id="highway.trunk_link" speed="13.89"/>

    <edge id=":1151522435_0" function="internal">
        <lane id=":1151522435_0_0" index="0" speed="13.89" length="0.10" shape="0.19,2736.93 0.19,2736.97"/>
    </edge>
    <edge id=":1411423334_0" function="internal">
        <lane id=":1411423334_0_0" index="0" speed="13.89" length="6.16" shape="4602.35,3582.84 4602.02,3576.69"/>
    </edge>
    <edge id=":1411423334_1" function="internal">
        <lane id=":1411423334_1_0" index="0" speed="13.89" length="5.10" shape="4598.91,3579.78 4600.32,3579.64 4601.31,3579.08 4601.87,3578.09 4602.02,3576.69"/>
    </edge>
    <edge id=":2581085947_0" function="internal">
        <lane id=":2581085947_0_0" index="0" speed="13.89" length="2.63" shape="3758.55,381.29 3758.47,380.57 3758.18,380.05 3757.67,379.74 3756.96,379.64"/>
    </edge>
    <edge id=":2581085955_0" function="internal">
        <lane id=":2581085955_0_0" index="0" speed="13.89" length="5.74" shape="2959.60,614.47 2958.27,615.60 2957.74,616.73 2958.00,617.88 2959.05,619.03"/>
    </edge>
    <edge id=":2581085955_1" function="internal">
        <lane id=":2581085955_1_0" index="0" speed="13.89" length="5.72" shape="2959.60,614.47 2958.06,615.20 2956.91,615.13 2956.13,614.27 2955.72,612.62"/>
    </edge>
    <edge id=":2581085962_0" function="internal">
        <lane id=":2581085962_0_0" index="0" speed="13.89" length="5.02" shape="3748.20,643.73 3746.82,643.87 3745.83,644.42 3745.22,645.37 3745.00,646.73"/>
    </edge>
    <edge id=":2581085962_1" function="internal">
        <lane id=":2581085962_1_0" index="0" speed="13.89" length="6.25" shape="3748.20,643.73 3741.95,643.48"/>
    </edge>
    <edge id=":2581085962_2" function="internal">
        <lane id=":2581085962_2_0" index="0" speed="13.89" length="6.25" shape="3745.15,640.48 3745.00,646.73"/>
    </edge>
    <edge id=":2581085962_3" function="internal">
        <lane id=":2581085962_3_0" index="0" speed="13.89" length="1.56" shape="3745.15,640.48 3744.92,641.84 3744.82,641.99"/>
    </edge>
    <edge id=":2581085962_4" function="internal">
        <lane id=":2581085962_4_0" index="0" speed="13.89" length="3.46" shape="3744.82,641.99 3744.31,642.79 3743.32,643.34 3741.95,643.48"/>
    </edge>
    <edge id=":2581085964_0" function="internal">
        <lane id=":2581085964_0_0" index="0" speed="13.89" length="6.26" shape="3755.59,644.03 3749.33,643.78"/>
    </edge>
    <edge id=":2581085964_1" function="internal">
        <lane id=":2581085964_1_0" index="0" speed="13.89" length="1.58" shape="3755.59,644.03 3754.22,643.78 3754.06,643.68"/>
    </edge>
    <edge id=":2581085964_4" function="internal">
        <lane id=":2581085964_4_0" index="0" speed="13.89" length="3.50" shape="3754.06,643.68 3753.26,643.15 3752.69,642.15 3752.52,640.77"/>
    </edge>
    <edge id=":2581085964_2" function="internal">
        <lane id=":2581085964_2_0" index="0" speed="13.89" length="5.08" shape="3752.39,647.03 3752.23,645.66 3751.66,644.65 3750.69,644.03 3749.33,643.78"/>
    </edge>
    <edge id=":2581085964_3" function="internal">
        <lane id=":2581085964_3_0" index="0" speed="13.89" length="6.26" shape="3752.39,647.03 3752.52,640.77"/>
    </edge>
    <edge id=":2581085967_0" function="internal">
        <lane id=":2581085967_0_0" index="0" speed="13.89" length="5.04" shape="3744.97,647.66 3745.14,649.04 3745.69,650.04 3746.65,650.65 3748.01,650.89"/>
    </edge>
    <edge id=":2581085967_1" function="internal">
        <lane id=":2581085967_1_0" index="0" speed="13.89" length="6.24" shape="3744.97,647.66 3744.82,653.90"/>
    </edge>
    <edge id=":2581085967_2" function="internal">
        <lane id=":2581085967_2_0" index="0" speed="13.89" length="6.24" shape="3741.77,650.66 3748.01,650.89"/>
    </edge>
    <edge id=":2581085967_3" function="internal">
        <lane id=":2581085967_3_0" index="0" speed="13.89" length="1.57" shape="3741.77,650.66 3743.13,650.91 3743.29,651.02"/>
    </edge>
    <edge id=":2581085967_4" function="internal">
        <lane id=":2581085967_4_0" index="0" speed="13.89" length="3.48" shape="3743.29,651.02 3744.10,651.54 3744.66,652.53 3744.82,653.90"/>
    </edge>
    <edge id=":2581085969_0" function="internal">
        <lane id=":2581085969_0_0" index="0" speed="13.89" length="6.08" shape="4063.45,655.51 4062.49,654.11 4061.41,653.64 4060.21,654.10 4058.88,655.48"/>
    </edge>
    <edge id=":2581085969_1" function="internal">
        <lane id=":2581085969_1_0" index="0" speed="13.89" length="7.88" shape="4063.45,655.51 4062.38,653.87 4060.95,652.69 4059.17,651.96 4057.04,651.69"/>
    </edge>
    <edge id=":2581085969_2" function="internal">
        <lane id=":2581085969_2_0" index="0" speed="13.89" length="8.09" shape="4065.78,651.89 4063.80,652.08 4061.99,652.74 4060.35,653.87 4058.88,655.48"/>
    </edge>
    <edge id=":2581085969_3" function="internal">
        <lane id=":2581085969_3_0" index="0" speed="13.89" length="8.74" shape="4065.78,651.89 4057.04,651.69"/>
    </edge>
    <edge id=":2581085971_0" function="internal">
        <lane id=":2581085971_0_0" index="0" speed="13.89" length="5.01" shape="3749.19,650.92 3750.56,650.77 3751.55,650.21 3752.15,649.26 3752.37,647.90"/>
    </edge>
    <edge id=":2581085971_1" function="internal">
        <lane id=":2581085971_1_0" index="0" speed="13.89" length="6.23" shape="3749.19,650.92 3755.42,651.11"/>
    </edge>
    <edge id=":2581085971_2" function="internal">
        <lane id=":2581085971_2_0" index="0" speed="13.89" length="6.23" shape="3752.24,654.13 3752.37,647.90"/>
    </edge>
    <edge id=":2581085971_3" function="internal">
        <lane id=":2581085971_3_0" index="0" speed="13.89" length="1.55" shape="3752.24,654.13 3752.47,652.77 3752.56,652.62"/>
    </edge>
    <edge id=":2581085971_4" function="internal">
        <lane id=":2581085971_4_0" index="0" speed="13.89" length="3.46" shape="3752.56,652.62 3753.07,651.82 3754.05,651.26 3755.42,651.11"/>
    </edge>
    <edge id=":2581085976_0" function="internal">
        <lane id=":2581085976_0_0" index="0" speed="13.89" length="6.07" shape="4058.39,656.13 4057.46,657.74 4057.46,658.91 4058.38,659.64 4060.22,659.93"/>
    </edge>
    <edge id=":2581085976_1" function="internal">
        <lane id=":2581085976_1_0" index="0" speed="13.89" length="7.57" shape="4058.39,656.13 4057.02,657.91 4056.17,659.24 4055.70,660.71 4055.52,662.90"/>
    </edge>
    <edge id=":2581085976_2" function="internal">
        <lane id=":2581085976_2_0" index="0" speed="13.89" length="7.71" shape="4052.51,659.71 4060.22,659.93"/>
    </edge>
    <edge id=":2581085976_3" function="internal">
        <lane id=":2581085976_3_0" index="0" speed="13.89" length="1.77" shape="4052.51,659.71 4053.87,659.94 4054.20,660.16"/>
    </edge>
    <edge id=":2581085976_4" function="internal">
        <lane id=":2581085976_4_0" index="0" speed="13.89" length="3.23" shape="4054.20,660.16 4054.82,660.55 4055.37,661.54 4055.52,662.90"/>
    </edge>
    <edge id=":2581085978_0" function="internal">
        <lane id=":2581085978_0_0" index="0" speed="13.89" length="5.72" shape="4061.52,659.97 4063.22,659.79 4064.17,659.13 4064.38,657.99 4063.86,656.37"/>
    </edge>
    <edge id=":2581085978_1" function="internal">
        <lane id=":2581085978_1_0" index="0" speed="13.89" length="7.23" shape="4061.52,659.97 4068.75,660.18"/>
    </edge>
    <edge id=":2581085978_2" function="internal">
        <lane id=":2581085978_2_0" index="0" speed="13.89" length="7.15" shape="4065.56,663.19 4065.55,661.09 4065.32,659.65 4064.78,658.28 4063.86,656.37"/>
    </edge>
    <edge id=":2581085978_3" function="internal">
        <lane id=":2581085978_3_0" index="0" speed="13.89" length="1.54" shape="4065.56,663.19 4065.79,661.84 4065.88,661.69"/>
    </edge>
    <edge id=":2581085978_4" function="internal">
        <lane id=":2581085978_4_0" index="0" speed="13.89" length="3.46" shape="4065.88,661.69 4066.40,660.88 4067.39,660.33 4068.75,660.18"/>
    </edge>
    <edge id=":2581085982_0" function="internal">
        <lane id=":2581085982_0_0" index="0" speed="13.89" length="0.30" shape="4219.96,664.56 4220.26,664.57"/>
    </edge>
    <edge id=":2581086016_0" function="internal">
        <lane id=":2581086016_0_0" index="0" speed="13.89" length="2.54" shape="4566.89,2409.15 4567.02,2408.46 4567.33,2407.98 4567.84,2407.70 4568.53,2407.62"/>
    </edge>
    <edge id=":2581086019_0" function="internal">
        <lane id=":2581086019_0_0" index="0" speed="13.89" length="5.00" shape="3701.37,2457.14 3701.53,2458.50 3702.09,2459.49 3703.04,2460.09 3704.39,2460.32"/>
    </edge>
    <edge id=":2581086019_1" function="internal">
        <lane id=":2581086019_1_0" index="0" speed="13.89" length="6.20" shape="3701.37,2457.14 3701.21,2463.34"/>
    </edge>
    <edge id=":2581086019_2" function="internal">
        <lane id=":2581086019_2_0" index="0" speed="13.89" length="6.20" shape="3698.19,2460.17 3704.39,2460.32"/>
    </edge>
    <edge id=":2581086019_3" function="internal">
        <lane id=":2581086019_3_0" index="0" speed="13.89" length="1.54" shape="3698.19,2460.17 3699.54,2460.39 3699.69,2460.48"/>
    </edge>
    <edge id=":2581086019_4" function="internal">
        <lane id=":2581086019_4_0" index="0" speed="13.89" length="3.46" shape="3699.69,2460.48 3700.50,2461.00 3701.05,2461.98 3701.21,2463.34"/>
    </edge>
    <edge id=":2581086020_0" function="internal">
        <lane id=":2581086020_0_0" index="0" speed="13.89" length="5.01" shape="3707.01,2460.40 3708.37,2460.24 3709.36,2459.68 3709.97,2458.73 3710.20,2457.38"/>
    </edge>
    <edge id=":2581086020_1" function="internal">
        <lane id=":2581086020_1_0" index="0" speed="13.89" length="6.21" shape="3707.01,2460.40 3713.21,2460.56"/>
    </edge>
    <edge id=":2581086020_2" function="internal">
        <lane id=":2581086020_2_0" index="0" speed="13.89" length="6.21" shape="3710.02,2463.58 3710.20,2457.38"/>
    </edge>
    <edge id=":2581086020_3" function="internal">
        <lane id=":2581086020_3_0" index="0" speed="13.89" length="1.54" shape="3710.02,2463.58 3710.25,2462.23 3710.35,2462.08"/>
    </edge>
    <edge id=":2581086020_4" function="internal">
        <lane id=":2581086020_4_0" index="0" speed="13.89" length="3.47" shape="3710.35,2462.08 3710.86,2461.27 3711.85,2460.72 3713.21,2460.56"/>
    </edge>
    <edge id=":2581086021_0" function="internal">
        <lane id=":2581086021_0_0" index="0" speed="13.89" length="0.10" shape="3863.95,2464.51 3863.95,2464.51"/>
    </edge>
    <edge id=":2581086023_0" function="internal">
        <lane id=":2581086023_0_0" index="0" speed="13.89" length="5.03" shape="4014.39,2465.35 4014.56,2466.71 4015.12,2467.70 4016.08,2468.31 4017.44,2468.54"/>
    </edge>
    <edge id=":2581086023_1" function="internal">
        <lane id=":2581086023_1_0" index="0" speed="13.89" length="6.22" shape="4014.39,2465.35 4014.27,2471.57"/>
    </edge>
    <edge id=":2581086023_2" function="internal">
        <lane id=":2581086023_2_0" index="0" speed="13.89" length="6.22" shape="4011.22,2468.38 4017.44,2468.54"/>
    </edge>
    <edge id=":2581086023_3" function="internal">
        <lane id=":2581086023_3_0" index="0" speed="13.89" length="1.55" shape="4011.22,2468.38 4012.58,2468.61 4012.72,2468.70"/>
    </edge>
    <edge id=":2581086023_4" function="internal">
        <lane id=":2581086023_4_0" index="0" speed="13.89" length="3.48" shape="4012.72,2468.70 4013.54,2469.22 4014.10,2470.20 4014.27,2471.57"/>
    </edge>
    <edge id=":2581086024_0" function="internal">
        <lane id=":2581086024_0_0" index="0" speed="13.89" length="5.01" shape="4019.57,2468.60 4020.94,2468.44 4021.92,2467.89 4022.52,2466.93 4022.75,2465.58"/>
    </edge>
    <edge id=":2581086024_1" function="internal">
        <lane id=":2581086024_1_0" index="0" speed="13.89" length="6.21" shape="4019.57,2468.60 4025.78,2468.77"/>
    </edge>
    <edge id=":2581086024_2" function="internal">
        <lane id=":2581086024_2_0" index="0" speed="13.89" length="6.21" shape="4022.61,2471.79 4022.75,2465.58"/>
    </edge>
    <edge id=":2581086024_3" function="internal">
        <lane id=":2581086024_3_0" index="0" speed="13.89" length="1.55" shape="4022.61,2471.79 4022.83,2470.44 4022.93,2470.29"/>
    </edge>
    <edge id=":2581086024_4" function="internal">
        <lane id=":2581086024_4_0" index="0" speed="13.89" length="3.46" shape="4022.93,2470.29 4023.44,2469.48 4024.42,2468.92 4025.78,2468.77"/>
    </edge>
    <edge id=":2581086025_0" function="internal">
        <lane id=":2581086025_0_0" index="0" speed="13.89" length="0.10" shape="4174.35,2472.66 4174.35,2472.66"/>
    </edge>
    <edge id=":2581086027_0" function="internal">
        <lane id=":2581086027_0_0" index="0" speed="13.89" length="5.02" shape="4326.17,2473.54 4326.33,2474.90 4326.89,2475.89 4327.85,2476.50 4329.21,2476.73"/>
    </edge>
    <edge id=":2581086027_1" function="internal">
        <lane id=":2581086027_1_0" index="0" speed="13.89" length="6.22" shape="4326.17,2473.54 4326.04,2479.76"/>
    </edge>
    <edge id=":2581086027_2" function="internal">
        <lane id=":2581086027_2_0" index="0" speed="13.89" length="6.22" shape="4322.99,2476.56 4329.21,2476.73"/>
    </edge>
    <edge id=":2581086027_3" function="internal">
        <lane id=":2581086027_3_0" index="0" speed="13.89" length="1.55" shape="4322.99,2476.56 4324.35,2476.79 4324.50,2476.89"/>
    </edge>
    <edge id=":2581086027_4" function="internal">
        <lane id=":2581086027_4_0" index="0" speed="13.89" length="3.47" shape="4324.50,2476.89 4325.31,2477.40 4325.87,2478.39 4326.04,2479.76"/>
    </edge>
    <edge id=":2581086028_0" function="internal">
        <lane id=":2581086028_0_0" index="0" speed="13.89" length="5.01" shape="4331.72,2476.80 4333.08,2476.64 4334.07,2476.08 4334.67,2475.12 4334.89,2473.77"/>
    </edge>
    <edge id=":2581086028_1" function="internal">
        <lane id=":2581086028_1_0" index="0" speed="13.89" length="6.22" shape="4331.72,2476.80 4337.93,2476.96"/>
    </edge>
    <edge id=":2581086028_2" function="internal">
        <lane id=":2581086028_2_0" index="0" speed="13.89" length="6.22" shape="4334.76,2479.98 4334.89,2473.77"/>
    </edge>
    <edge id=":2581086028_3" function="internal">
        <lane id=":2581086028_3_0" index="0" speed="13.89" length="1.54" shape="4334.76,2479.98 4334.98,2478.63 4335.08,2478.49"/>
    </edge>
    <edge id=":2581086028_4" function="internal">
        <lane id=":2581086028_4_0" index="0" speed="13.89" length="3.46" shape="4335.08,2478.49 4335.59,2477.68 4336.57,2477.12 4337.93,2476.96"/>
    </edge>
    <edge id=":2581086036_0" function="internal">
        <lane id=":2581086036_0_0" index="0" speed="13.89" length="0.10" shape="3699.94,2512.48 3699.94,2512.48"/>
    </edge>
    <edge id=":2581086038_0" function="internal">
        <lane id=":2581086038_0_0" index="0" speed="13.89" length="0.10" shape="3708.60,2512.72 3708.60,2512.72"/>
    </edge>
    <edge id=":2581086066_0" function="internal">
        <lane id=":2581086066_0_0" index="0" speed="13.89" length="0.10" shape="4013.28,2520.90 4013.28,2520.90"/>
    </edge>
    <edge id=":2581086067_0" function="internal">
        <lane id=":2581086067_0_0" index="0" speed="13.89" length="0.10" shape="4021.12,2539.60 4021.12,2539.60"/>
    </edge>
    <edge id=":2581086077_0" function="internal">
        <lane id=":2581086077_0_0" index="0" speed="13.89" length="0.10" shape="4324.85,2545.94 4324.85,2545.94"/>
    </edge>
    <edge id=":2581086110_0" function="internal">
        <lane id=":2581086110_0_0" index="0" speed="13.89" length="0.10" shape="3697.25,2634.49 3697.25,2634.49"/>
    </edge>
    <edge id=":2581086111_0" function="internal">
        <lane id=":2581086111_0_0" index="0" speed="13.89" length="0.10" shape="3705.19,2634.63 3705.19,2634.63"/>
    </edge>
    <edge id=":2581086121_0" function="internal">
        <lane id=":2581086121_0_0" index="0" speed="13.89" length="0.10" shape="4010.38,2642.27 4010.38,2642.27"/>
    </edge>
    <edge id=":2581086151_0" function="internal">
        <lane id=":2581086151_0_0" index="0" speed="13.89" length="0.10" shape="4008.39,2726.38 4008.39,2726.38"/>
    </edge>
    <edge id=":2581086152_0" function="internal">
        <lane id=":2581086152_0_0" index="0" speed="13.89" length="0.10" shape="4017.01,2726.53 4017.01,2726.53"/>
    </edge>
    <edge id=":2581086162_0" function="internal">
        <lane id=":2581086162_0_0" index="0" speed="13.89" length="0.10" shape="4321.49,2731.77 4321.49,2731.77"/>
    </edge>
    <edge id=":2581086164_0" function="internal">
        <lane id=":2581086164_0_0" index="0" speed="13.89" length="0.10" shape="3695.32,2738.16 3695.32,2738.16"/>
    </edge>
    <edge id=":2581086166_0" function="internal">
        <lane id=":2581086166_0_0" index="0" speed="13.89" length="0.10" shape="3702.39,2738.32 3702.39,2738.32"/>
    </edge>
    <edge id=":2581086180_0" function="internal">
        <lane id=":2581086180_0_0" index="0" speed="13.89" length="0.10" shape="4007.94,2745.12 4007.94,2745.12"/>
    </edge>
    <edge id=":2581086217_0" function="internal">
        <lane id=":2581086217_0_0" index="0" speed="13.89" length="4.89" shape="3697.60,2787.18 3696.28,2787.36 3695.50,2787.97 3695.26,2789.00 3695.57,2790.47"/>
    </edge>
    <edge id=":2581086217_1" function="internal">
        <lane id=":2581086217_1_0" index="0" speed="13.89" length="6.30" shape="3697.60,2787.18 3691.31,2787.05"/>
    </edge>
    <edge id=":2581086217_2" function="internal">
        <lane id=":2581086217_2_0" index="0" speed="13.89" length="6.61" shape="3694.47,2784.01 3694.46,2785.96 3694.59,2787.31 3694.94,2788.61 3695.57,2790.47"/>
    </edge>
    <edge id=":2581086217_3" function="internal">
        <lane id=":2581086217_3_0" index="0" speed="13.89" length="1.54" shape="3694.47,2784.01 3694.25,2785.36 3694.16,2785.51"/>
    </edge>
    <edge id=":2581086217_4" function="internal">
        <lane id=":2581086217_4_0" index="0" speed="13.89" length="3.46" shape="3694.16,2785.51 3693.65,2786.32 3692.67,2786.88 3691.31,2787.05"/>
    </edge>
    <edge id=":2581086225_0" function="internal">
        <lane id=":2581086225_0_0" index="0" speed="13.89" length="6.38" shape="3704.18,2787.32 3697.80,2787.18"/>
    </edge>
    <edge id=":2581086225_1" function="internal">
        <lane id=":2581086225_1_0" index="0" speed="13.89" length="1.69" shape="3704.18,2787.32 3702.82,2787.10 3702.56,2786.93"/>
    </edge>
    <edge id=":2581086225_4" function="internal">
        <lane id=":2581086225_4_0" index="0" speed="13.89" length="3.32" shape="3702.56,2786.93 3701.87,2786.49 3701.31,2785.51 3701.15,2784.15"/>
    </edge>
    <edge id=":2581086225_2" function="internal">
        <lane id=":2581086225_2_0" index="0" speed="13.89" length="4.97" shape="3699.63,2790.61 3700.06,2789.14 3699.89,2788.08 3699.14,2787.42 3697.80,2787.18"/>
    </edge>
    <edge id=":2581086225_3" function="internal">
        <lane id=":2581086225_3_0" index="0" speed="13.89" length="6.72" shape="3699.63,2790.61 3700.41,2788.78 3700.85,2787.48 3701.06,2786.13 3701.15,2784.15"/>
    </edge>
    <edge id=":2581086228_0" function="internal">
        <lane id=":2581086228_0_0" index="0" speed="13.89" length="5.27" shape="3960.68,2793.05 3959.20,2793.23 3958.23,2793.84 3957.78,2794.89 3957.85,2796.38"/>
    </edge>
    <edge id=":2581086228_1" function="internal">
        <lane id=":2581086228_1_0" index="0" speed="13.89" length="6.27" shape="3960.68,2793.05 3954.41,2792.91"/>
    </edge>
    <edge id=":2581086230_0" function="internal">
        <lane id=":2581086230_0_0" index="0" speed="13.89" length="5.67" shape="4010.81,2794.15 4009.15,2794.35 4008.20,2795.01 4007.96,2796.14 4008.44,2797.75"/>
    </edge>
    <edge id=":2581086230_1" function="internal">
        <lane id=":2581086230_1_0" index="0" speed="13.89" length="7.14" shape="4010.81,2794.15 4003.68,2794.00"/>
    </edge>
    <edge id=":2581086230_2" function="internal">
        <lane id=":2581086230_2_0" index="0" speed="13.89" length="7.08" shape="4006.85,2790.96 4006.86,2793.05 4007.07,2794.47 4007.57,2795.84 4008.44,2797.75"/>
    </edge>
    <edge id=":2581086230_3" function="internal">
        <lane id=":2581086230_3_0" index="0" speed="13.89" length="1.54" shape="4006.85,2790.96 4006.62,2792.32 4006.53,2792.46"/>
    </edge>
    <edge id=":2581086230_4" function="internal">
        <lane id=":2581086230_4_0" index="0" speed="13.89" length="3.46" shape="4006.53,2792.46 4006.02,2793.27 4005.04,2793.83 4003.68,2794.00"/>
    </edge>
    <edge id=":2581086232_0" function="internal">
        <lane id=":2581086232_0_0" index="0" speed="13.89" length="7.34" shape="4018.62,2794.33 4011.28,2794.16"/>
    </edge>
    <edge id=":2581086232_1" function="internal">
        <lane id=":2581086232_1_0" index="0" speed="13.89" length="1.74" shape="4018.62,2794.33 4017.27,2794.10 4016.96,2793.91"/>
    </edge>
    <edge id=":2581086232_4" function="internal">
        <lane id=":2581086232_4_0" index="0" speed="13.89" length="3.26" shape="4016.96,2793.91 4016.31,2793.50 4015.75,2792.52 4015.59,2791.16"/>
    </edge>
    <edge id=":2581086232_2" function="internal">
        <lane id=":2581086232_2_0" index="0" speed="13.89" length="5.80" shape="4013.36,2797.90 4014.04,2796.30 4013.92,2795.15 4013.00,2794.43 4011.28,2794.16"/>
    </edge>
    <edge id=":2581086232_3" function="internal">
        <lane id=":2581086232_3_0" index="0" speed="13.89" length="7.25" shape="4013.36,2797.90 4014.46,2796.06 4015.12,2794.72 4015.46,2793.28 4015.59,2791.16"/>
    </edge>
    <edge id=":2581086240_0" function="internal">
        <lane id=":2581086240_0_0" index="0" speed="13.89" length="6.59" shape="3695.65,2790.70 3696.55,2792.62 3697.50,2793.28 3698.50,2792.68 3699.55,2790.81"/>
    </edge>
    <edge id=":2581086240_1" function="internal">
        <lane id=":2581086240_1_0" index="0" speed="13.89" length="8.18" shape="3695.65,2790.70 3696.66,2792.94 3697.94,2794.55 3699.47,2795.53 3701.28,2795.89"/>
    </edge>
    <edge id=":2581086240_2" function="internal">
        <lane id=":2581086240_2_0" index="0" speed="13.89" length="8.19" shape="3693.61,2795.72 3695.41,2795.45 3696.99,2794.54 3698.37,2792.99 3699.55,2790.81"/>
    </edge>
    <edge id=":2581086240_3" function="internal">
        <lane id=":2581086240_3_0" index="0" speed="13.89" length="7.67" shape="3693.61,2795.72 3701.28,2795.89"/>
    </edge>
    <edge id=":2581086243_0" function="internal">
        <lane id=":2581086243_0_0" index="0" speed="13.89" length="0.30" shape="4163.64,2797.53 4163.34,2797.52"/>
    </edge>
    <edge id=":2581086245_0" function="internal">
        <lane id=":2581086245_0_0" index="0" speed="13.89" length="0.30" shape="4172.20,2797.71 4171.90,2797.70"/>
    </edge>
    <edge id=":2581086247_0" function="internal">
        <lane id=":2581086247_0_0" index="0" speed="13.89" length="5.39" shape="4323.89,2801.04 4322.40,2801.24 4321.58,2801.90 4321.43,2803.04 4321.94,2804.65"/>
    </edge>
    <edge id=":2581086247_1" function="internal">
        <lane id=":2581086247_1_0" index="0" speed="13.89" length="6.75" shape="4323.89,2801.04 4317.14,2800.89"/>
    </edge>
    <edge id=":2581086247_2" function="internal">
        <lane id=":2581086247_2_0" index="0" speed="13.89" length="7.09" shape="4320.31,2797.85 4320.33,2799.94 4320.55,2801.37 4321.06,2802.74 4321.94,2804.65"/>
    </edge>
    <edge id=":2581086247_3" function="internal">
        <lane id=":2581086247_3_0" index="0" speed="13.89" length="1.54" shape="4320.31,2797.85 4320.09,2799.21 4320.00,2799.35"/>
    </edge>
    <edge id=":2581086247_4" function="internal">
        <lane id=":2581086247_4_0" index="0" speed="13.89" length="3.46" shape="4320.00,2799.35 4319.49,2800.17 4318.51,2800.73 4317.14,2800.89"/>
    </edge>
    <edge id=":2581086249_0" function="internal">
        <lane id=":2581086249_0_0" index="0" speed="13.89" length="6.41" shape="4330.50,2801.18 4324.09,2801.04"/>
    </edge>
    <edge id=":2581086249_1" function="internal">
        <lane id=":2581086249_1_0" index="0" speed="13.89" length="1.66" shape="4330.50,2801.18 4329.15,2800.96 4328.90,2800.80"/>
    </edge>
    <edge id=":2581086249_4" function="internal">
        <lane id=":2581086249_4_0" index="0" speed="13.89" length="3.34" shape="4328.90,2800.80 4328.19,2800.36 4327.63,2799.38 4327.47,2798.01"/>
    </edge>
    <edge id=":2581086249_2" function="internal">
        <lane id=":2581086249_2_0" index="0" speed="13.89" length="5.11" shape="4326.16,2804.57 4326.49,2803.05 4326.26,2801.96 4325.46,2801.29 4324.09,2801.04"/>
    </edge>
    <edge id=":2581086249_3" function="internal">
        <lane id=":2581086249_3_0" index="0" speed="13.89" length="6.74" shape="4326.16,2804.57 4326.83,2802.69 4327.21,2801.37 4327.39,2800.01 4327.47,2798.01"/>
    </edge>
    <edge id=":2581086251_0" function="internal">
        <lane id=":2581086251_0_0" index="0" speed="13.89" length="5.91" shape="3958.16,2798.01 3958.66,2799.51 3959.51,2800.59 3960.72,2801.25 3962.28,2801.50"/>
    </edge>
    <edge id=":2581086251_1" function="internal">
        <lane id=":2581086251_1_0" index="0" speed="13.89" length="6.95" shape="3958.16,2798.01 3959.45,2804.84"/>
    </edge>
    <edge id=":2581086251_2" function="internal">
        <lane id=":2581086251_2_0" index="0" speed="13.89" length="6.95" shape="3955.33,2801.35 3962.28,2801.50"/>
    </edge>
    <edge id=":2581086251_3" function="internal">
        <lane id=":2581086251_3_0" index="0" speed="13.89" length="1.98" shape="3955.33,2801.35 3956.89,2801.60 3957.25,2801.79"/>
    </edge>
    <edge id=":2581086251_4" function="internal">
        <lane id=":2581086251_4_0" index="0" speed="13.89" length="3.93" shape="3957.25,2801.79 3958.10,2802.26 3958.95,2803.34 3959.45,2804.84"/>
    </edge>
    <edge id=":2581086253_0" function="internal">
        <lane id=":2581086253_0_0" index="0" speed="13.89" length="6.05" shape="4008.72,2798.37 4009.69,2799.95 4010.72,2800.51 4011.80,2800.07 4012.94,2798.61"/>
    </edge>
    <edge id=":2581086253_1" function="internal">
        <lane id=":2581086253_1_0" index="0" speed="13.89" length="7.90" shape="4008.72,2798.37 4009.81,2800.20 4011.20,2801.52 4012.87,2802.33 4014.85,2802.63"/>
    </edge>
    <edge id=":2581086253_2" function="internal">
        <lane id=":2581086253_2_0" index="0" speed="13.89" length="7.82" shape="4006.57,2802.45 4008.48,2802.25 4010.18,2801.53 4011.67,2800.32 4012.94,2798.61"/>
    </edge>
    <edge id=":2581086253_3" function="internal">
        <lane id=":2581086253_3_0" index="0" speed="13.89" length="8.28" shape="4006.57,2802.45 4014.85,2802.63"/>
    </edge>
    <edge id=":2581086258_0" function="internal">
        <lane id=":2581086258_0_0" index="0" speed="13.89" length="5.14" shape="4550.48,2809.25 4550.20,2807.82 4549.57,2806.80 4548.61,2806.17 4547.30,2805.94"/>
    </edge>
    <edge id=":2581086258_1" function="internal">
        <lane id=":2581086258_1_0" index="0" speed="13.89" length="6.21" shape="4553.51,2806.07 4547.30,2805.94"/>
    </edge>
    <edge id=":2581086262_0" function="internal">
        <lane id=":2581086262_0_0" index="0" speed="13.89" length="0.10" shape="4167.96,2806.15 4167.96,2806.15"/>
    </edge>
    <edge id=":2581086266_0" function="internal">
        <lane id=":2581086266_0_0" index="0" speed="13.89" length="6.68" shape="4322.03,2804.84 4323.13,2806.67 4324.18,2807.25 4325.18,2806.58 4326.12,2804.66"/>
    </edge>
    <edge id=":2581086266_1" function="internal">
        <lane id=":2581086266_1_0" index="0" speed="13.89" length="8.22" shape="4322.03,2804.84 4323.25,2806.99 4324.65,2808.55 4326.24,2809.50 4328.01,2809.84"/>
    </edge>
    <edge id=":2581086266_2" function="internal">
        <lane id=":2581086266_2_0" index="0" speed="13.89" length="8.29" shape="4320.23,2809.66 4322.12,2809.39 4323.73,2808.46 4325.06,2806.89 4326.12,2804.66"/>
    </edge>
    <edge id=":2581086266_3" function="internal">
        <lane id=":2581086266_3_0" index="0" speed="13.89" length="7.78" shape="4320.23,2809.66 4328.01,2809.84"/>
    </edge>
    <edge id=":2581086275_0" function="internal">
        <lane id=":2581086275_0_0" index="0" speed="13.89" length="6.50" shape="4551.09,2818.16 4550.65,2811.68"/>
    </edge>
    <edge id=":2581086275_1" function="internal">