<?xml version="1.0" encoding="UTF-8"?>

<!-- generated on Mon May 14 19:13:46 2018 by SUMO polyconvert Version 0.32.0
<?xml version="1.0" encoding="UTF-8"?>

<configuration xmlns:xsi="http://www.w3.org/2001/XMLSchema-instance" xsi:noNamespaceSchemaLocation="http://sumo.dlr.de/xsd/polyconvertConfiguration.xsd">

    <input>
        <net-file value="dresden.net.xml"/>
        <osm-files value="dresden.osm"/>
        <type-file value="osmPolyconvert.typ.xml"/>
    </input>

    <output>
        <output-file value="dresden.poly.xml"/>
    </output>

    <processing>
        <poi-layer-offset value="5"/>
    </processing>

</configuration>
-->

<additional xmlns:xsi="http://www.w3.org/2001/XMLSchema-instance" xsi:noNamespaceSchemaLocation="http://sumo.dlr.de/xsd/additional_file.xsd">
    <location netOffset="-408769.52,-5652391.14" convBoundary="-0.00,-967.93,5552.67,2867.63" origBoundary="13.699391,51.007518,13.778576,51.043457" projParameter="+proj=utm +zone=33 +ellps=WGS84 +datum=WGS84 +units=m +no_defs"/>

    <poly id="110569661" type="leisure" color="207,245,201" fill="1" layer="-2.00" shape="1560.48,1571.12 1553.87,1584.25 1580.11,1597.39 1586.71,1584.26 1560.48,1571.12"/>
    <poly id="111787973" type="parking" color="184,184,179" fill="1" layer="-1.00" shape="1465.01,2043.87 1468.84,2049.13 1472.14,2053.63 1461.66,2061.26 1454.53,2051.48 1465.01,2043.87"/>
    <poly id="111794355" type="parking" color="184,184,179" fill="1" layer="-1.00" shape="1541.19,1647.04 1536.74,1656.11 1565.00,1669.88 1569.44,1660.81 1541.19,1647.04"/>
    <poly id="111796589" type="parking" color="184,184,179" fill="1" layer="-1.00" shape="1677.97,1813.69 1684.01,1822.09 1665.24,1835.51 1659.20,1827.12 1677.97,1813.69"/>
    <poly id="112046268" type="amenity" color="237,199,199" fill="1" layer="-1.00" shape="1529.88,1582.56 1594.31,1616.76 1612.17,1583.14 1606.43,1579.66 1591.59,1606.66 1538.31,1580.08 1553.33,1551.53 1547.74,1548.42 1529.88,1582.56"/>
    <poly id="112565577" type="building" color="255,230,230" fill="1" layer="-1.00" shape="1151.17,1999.40 1164.11,1989.76 1162.78,1987.98 1167.68,1984.33 1156.98,1970.03 1139.13,1983.32 1151.17,1999.40"/>
    <poly id="11270778" type="residential" color="235,235,227" fill="1" layer="-3.00" shape="2524.07,1059.99 2386.75,1099.87 2384.87,1092.93 2380.36,1078.45 2301.64,1091.10 2283.71,1227.69 2294.90,1228.78 2302.82,1235.15 2312.89,1262.42 2323.78,1285.01 2451.65,1270.03 2550.12,1259.52 2551.03,1207.97 2544.78,1193.64 2541.98,1180.82 2541.60,1179.04 2541.14,1176.92 2538.46,1164.40 2524.07,1059.99"/>
    <poly id="11277226" type="commercial" color="209,209,204" fill="1" layer="-3.00" shape="832.14,1858.31 827.24,1856.48 821.52,1857.75 803.41,1869.92 772.84,1885.92 719.92,1911.27 663.34,1940.88 661.77,1946.02 690.18,1996.48 764.61,2132.67 823.93,2090.62 860.31,2063.37 911.47,2132.56 980.79,2061.40 914.64,1967.72 832.14,1858.31"/>
    <poly id="11277436" type="landuse" color="194,194,130" fill="1" layer="-3.00" shape="1075.01,2182.84 1071.27,2183.86 1066.07,2181.90 1061.20,2177.67 1057.58,2172.31 1054.90,2165.10 1057.07,2159.44 980.79,2061.40 911.47,2132.56 842.24,2204.40 847.14,2220.21 847.60,2220.61 854.63,2226.80 860.15,2231.49 874.34,2235.95 876.70,2233.75 948.29,2303.99 985.61,2314.08 1011.32,2323.81 1071.70,2276.19 1078.71,2270.66 1083.93,2276.84 1122.47,2246.25 1075.01,2182.84"/>
    <poly id="112954489" type="landuse" color="194,194,130" fill="1" layer="-3.00" shape="1880.05,908.62 1964.29,905.85 1965.61,922.61 1880.47,927.39 1880.31,921.95 1880.33,919.46 1879.99,916.40 1880.05,908.62"/>
    <poly id="112954490" type="landuse" color="194,194,130" fill="1" layer="-3.00" shape="1890.09,921.30 1890.05,915.58 1959.29,910.89 1959.44,915.67 1890.09,921.30"/>
    <poly id="113113083" type="landuse" color="194,194,130" fill="1" layer="-3.00" shape="2518.19,650.11 2514.14,654.80 2454.86,657.68 2455.86,668.39 2474.04,863.71 2498.11,857.66 2514.71,858.07 2529.74,864.54 2548.63,868.15 2532.83,881.16 2574.07,873.63 2576.01,856.76 2593.98,857.32 2616.52,844.71 2652.03,847.16 2659.36,847.00 2605.02,651.92 2604.60,644.46 2518.19,650.11"/>
    <poly id="113113085" type="forest" color="140,196,107" fill="1" layer="-4.00" shape="2532.83,881.16 2548.63,868.15 2529.74,864.54 2514.71,858.07 2498.11,857.66 2474.04,863.71 2474.95,882.98 2478.24,891.24 2532.83,881.16"/>
    <poly id="113113087" type="forest" color="140,196,107" fill="1" layer="-4.00" shape="2659.36,847.00 2662.37,854.44 2663.07,859.92 2574.07,873.63 2576.01,856.76 2593.98,857.32 2616.52,844.71 2652.03,847.16 2659.36,847.00"/>
    <poly id="113113370" type="leisure" color="207,245,201" fill="1" layer="-2.00" shape="3797.56,623.55 3796.52,629.55 3788.84,634.77 3760.12,654.29 3739.24,625.88 3756.66,615.70 3779.38,603.69 3797.56,623.55"/>
    <poly id="113113371" type="natural" color="140,196,107" fill="1" layer="-4.00" shape="3651.53,711.26 3680.96,692.42 3662.75,663.85 3739.24,625.88 3760.12,654.29 3660.27,724.86 3651.53,711.26"/>
    <poly id="114133519" type="building" color="255,230,230" fill="1" layer="-1.00" shape="1789.35,1845.08 1782.98,1836.82 1773.74,1843.91 1789.09,1863.79 1794.86,1859.36 1797.81,1857.11 1806.73,1850.42 1797.78,1838.61 1789.35,1845.08"/>
    <poly id="114853332" type="building" color="255,230,230" fill="1" layer="-1.00" shape="3951.00,1680.28 3943.78,1689.88 3963.44,1704.52 3970.75,1694.97 3951.00,1680.28"/>
    <poly id="114853333" type="building" color="255,230,230" fill="1" layer="-1.00" shape="3900.10,1722.76 3880.48,1708.16 3873.28,1717.79 3892.90,1732.39 3900.10,1722.76"/>
    <poly id="114853334" type="building" color="255,230,230" fill="1" layer="-1.00" shape="3912.16,1731.74 3905.05,1741.42 3924.98,1756.26 3932.22,1746.66 3912.16,1731.74"/>
    <poly id="114853335" type="building" color="255,230,230" fill="1" layer="-1.00" shape="3879.51,1642.07 3899.20,1656.72 3906.40,1647.09 3886.71,1632.44 3879.51,1642.07"/>
    <poly id="114853336" type="building" color="255,230,230" fill="1" layer="-1.00" shape="3887.27,1765.60 3906.77,1780.43 3912.41,1772.95 3892.82,1758.06 3887.27,1765.60"/>
    <poly id="114853337" type="building" color="255,230,230" fill="1" layer="-1.00" shape="3966.70,1659.42 3986.49,1674.46 3992.19,1667.04 3972.33,1651.93 3966.70,1659.42"/>
    <poly id="114853338" type="building" color="255,230,230" fill="1" layer="-1.00" shape="3868.12,1698.97 3848.09,1684.07 3840.88,1693.69 3860.92,1708.60 3868.12,1698.97"/>
    <poly id="114853339" type="building" color="255,230,230" fill="1" layer="-1.00" shape="3919.10,1656.54 3911.90,1666.16 3931.18,1680.51 3938.38,1670.89 3919.10,1656.54"/>
    <poly id="119547240" type="natural" color="140,196,107" fill="1" layer="-4.00" shape="3323.25,2053.68 3325.46,2058.08 3328.75,2064.63 3330.57,2063.66 3328.49,2059.80 3348.68,2048.92 3350.84,2052.91 3352.75,2051.89 3350.59,2047.90 3372.90,2035.88 3375.06,2039.87 3376.91,2038.89 3374.75,2034.90 3397.14,2022.85 3399.30,2026.84 3401.09,2025.87 3398.93,2021.88 3421.39,2009.80 3423.51,2013.72 3425.13,2012.86 3421.53,2006.22 3419.36,2002.23 3323.25,2053.68"/>
    <poly id="119547245" type="natural" color="140,196,107" fill="1" layer="-4.00" shape="3331.70,2070.08 3337.25,2080.35 3339.08,2079.37 3337.05,2075.64 3357.25,2064.76 3359.29,2068.54 3361.20,2067.51 3359.15,2063.71 3381.46,2051.71 3383.48,2055.45 3385.33,2054.45 3383.37,2050.82 3405.76,2038.77 3407.74,2042.44 3409.53,2041.48 3407.43,2037.59 3429.88,2025.51 3432.16,2029.73 3433.78,2028.85 3428.13,2018.42 3426.51,2019.29 3428.73,2023.38 3406.27,2035.46 3404.05,2031.34 3402.26,2032.30 3404.32,2036.13 3381.94,2048.18 3379.87,2044.35 3378.02,2045.35 3380.09,2049.17 3357.77,2061.18 3355.71,2057.36 3353.80,2058.39 3356.00,2062.44 3335.80,2073.32 3333.52,2069.10 3331.70,2070.08"/>
    <poly id="119547246" type="parking" color="184,184,179" fill="1" layer="-1.00" shape="3333.52,2069.10 3335.80,2073.32 3337.05,2075.64 3339.08,2079.37 3342.15,2085.04 3344.28,2088.99 3345.64,2091.50 3347.55,2094.97 3350.85,2100.94 3352.89,2104.68 3355.82,2110.31 3356.48,2111.53 3449.35,2061.69 3448.58,2060.26 3445.69,2054.74 3443.67,2050.99 3440.42,2044.98 3437.24,2039.11 3434.99,2034.95 3432.16,2029.73 3428.73,2023.38 3426.51,2019.29 3423.51,2013.72 3421.39,2009.80 3398.93,2021.88 3397.14,2022.85 3374.75,2034.90 3372.90,2035.88 3350.59,2047.90 3348.68,2048.92 3328.49,2059.80 3330.57,2063.66 3333.52,2069.10"/>
    <poly id="120655781" type="building" color="255,230,230" fill="1" layer="-1.00" shape="2238.77,1038.63 2270.25,1042.07 2269.50,1048.96 2280.67,1050.19 2282.65,1032.21 2239.99,1027.54 2239.72,1029.97 2238.87,1037.67 2238.77,1038.63"/>
    <poly id="120655782" type="building" color="255,230,230" fill="1" layer="-1.00" shape="2232.62,1081.75 2275.60,1086.70 2277.60,1069.42 2266.44,1068.13 2265.79,1073.80 2233.96,1070.13 2232.62,1081.75"/>
    <poly id="12115831" type="tourism" color="207,245,201" fill="1" layer="-2.00" shape="1247.29,742.46 1285.91,724.29 1294.29,718.74 1298.51,711.49 1298.79,706.86 1297.97,700.54 1295.68,696.03 1290.05,692.29 1282.75,690.28 1271.04,693.76 1237.63,704.95 1247.29,742.46"/>
    <poly id="121652736" type="building" color="255,230,230" fill="1" layer="-1.00" shape="2940.73,1212.87 2936.72,1189.09 2945.99,1187.53 2950.00,1211.31 2940.73,1212.87"/>
    <poly id="121652741" type="building" color="255,230,230" fill="1" layer="-1.00" shape="2892.81,1225.53 2917.96,1219.99 2915.64,1209.51 2873.31,1218.86 2874.35,1223.54 2891.53,1219.75 2892.81,1225.53"/>
    <poly id="121652742" type="building" color="255,230,230" fill="1" layer="-1.00" shape="2979.04,1208.91 2974.29,1180.38 2984.23,1178.74 2988.98,1207.27 2979.04,1208.91"/>
    <poly id="121652744" type="building" color="255,230,230" fill="1" layer="-1.00" shape="2874.99,1208.28 2916.10,1199.26 2915.10,1194.72 2867.51,1205.15 2868.51,1209.71 2874.99,1208.28"/>
    <poly id="121652746" type="building" color="255,230,230" fill="1" layer="-1.00" shape="2998.97,1205.71 2993.57,1176.95 3004.43,1174.92 3009.83,1203.68 2998.97,1205.71"/>
    <poly id="121652747" type="building" color="255,230,230" fill="1" layer="-1.00" shape="2959.62,1210.68 2954.95,1184.80 2965.05,1183.00 2969.72,1208.87 2959.62,1210.68"/>
    <poly id="121652749" type="building" color="255,230,230" fill="1" layer="-1.00" shape="3026.28,1200.83 3022.71,1176.45 3008.35,1178.54 3007.46,1172.43 3027.28,1169.54 3031.74,1200.02 3026.28,1200.83"/>
    <poly id="121652750" type="building" color="255,230,230" fill="1" layer="-1.00" shape="2927.24,1216.01 2923.86,1197.15 2929.02,1196.23 2932.39,1215.09 2927.24,1216.01"/>
    <poly id="124768715" type="building" color="255,230,230" fill="1" layer="-1.00" shape="3012.04,856.75 3009.73,846.91 3018.74,844.99 3020.03,851.89 3020.74,851.79 3021.49,854.01 3012.04,856.75"/>
    <poly id="12607081" type="residential" color="235,235,227" fill="1" layer="-3.00" shape="2924.38,598.10 2965.60,783.29 2970.01,793.30 2986.75,802.26 2992.56,803.49 3074.50,789.68 3126.92,780.47 3155.19,773.72 3193.35,766.70 3427.65,725.51 3493.01,713.92 3551.19,699.73 3604.50,681.89 3607.36,678.37 3608.85,671.09 3588.40,644.29 3490.31,539.56 3470.26,509.41 3359.96,586.82 3352.06,589.30 3273.29,614.03 3277.90,612.24 3155.72,625.00 3155.45,623.49 3144.46,561.55 3087.43,571.02 2924.38,598.10"/>
    <poly id="12622594" type="leisure" color="207,245,201" fill="1" layer="-2.00" shape="3396.70,828.30 3394.77,823.45 3283.25,867.70 3285.18,872.55 3396.70,828.30"/>
    <poly id="12622594#1" type="sport" color="79,230,125" fill="1" layer="-2.00" shape="3396.70,828.30 3394.77,823.45 3283.25,867.70 3285.18,872.55 3396.70,828.30"/>
    <poly id="126266828" type="landuse" color="194,194,130" fill="1" layer="-3.00" shape="3550.13,2002.96 3557.85,1963.96 3595.77,1976.27 3550.13,2002.96"/>
    <poly id="131835707" type="building" color="255,230,230" fill="1" layer="-1.00" shape="1621.85,1291.63 1622.12,1289.71 1625.26,1267.40 1639.89,1269.45 1664.47,1272.87 1731.95,1282.33 1756.10,1285.71 1752.67,1309.96 1745.75,1308.98 1742.81,1308.57 1736.30,1307.66 1732.81,1307.16 1728.54,1306.56 1716.07,1304.81 1712.49,1304.32 1685.77,1300.59 1683.18,1300.23 1661.05,1297.15 1657.14,1296.60 1636.48,1293.69 1621.85,1291.63"/>
    <poly id="136177295" type="building" color="255,230,230" fill="1" layer="-1.00" shape="3648.48,1817.10 3665.32,1798.11 3629.59,1766.16 3617.05,1761.00 3614.51,1768.69 3618.84,1771.22 3622.78,1773.52 3612.86,1784.28 3640.54,1809.78 3648.48,1817.10"/>
    <poly id="136177295#1" type="shop" color="237,199,255" fill="1" layer="-1.00" shape="3648.48,1817.10 3665.32,1798.11 3629.59,1766.16 3617.05,1761.00 3614.51,1768.69 3618.84,1771.22 3622.78,1773.52 3612.86,1784.28 3640.54,1809.78 3648.48,1817.10"/>
    <poly id="13859552" type="residential" color="235,235,227" fill="1" layer="-3.00" shape="3891.59,2171.49 4180.34,1983.94 4191.05,1976.99 4226.22,1953.47 4617.62,1690.72 4676.41,1660.67 4684.56,1656.48 5033.56,1467.19 5034.44,1460.39 4999.12,1405.13 4992.78,1405.21 4986.39,1404.56 4979.07,1403.02 4973.37,1401.33 4969.62,1399.72 4965.31,1396.10 4961.98,1392.03 4954.28,1377.29 4952.84,1372.04 4952.44,1367.03 4952.67,1361.69 4953.13,1356.83 4954.39,1351.96 4956.44,1347.94 4959.95,1344.76 4959.08,1343.40 4935.83,1306.43 4808.65,1371.28 4702.91,1432.54 4650.61,1464.33 4613.11,1489.53 4502.46,1547.76 4401.80,1601.50 4397.68,1594.35 4370.05,1610.36 4351.91,1619.84 4354.33,1624.17 4202.91,1702.10 4090.51,1762.27 4128.05,1823.59 4050.65,1865.63 4041.61,1870.51 4031.31,1876.41 3995.76,1895.14 3982.06,1902.97 3898.88,1947.34 3895.57,1941.03 3888.35,1944.90 3877.70,1925.99 3853.16,1883.94 3779.03,1923.07 3798.50,1962.52 3765.40,1979.42 3746.24,1940.37 3633.94,1999.84 3647.69,2028.68 3617.43,2043.57 3639.54,2086.27 3610.00,2103.76 3590.25,2068.90 3581.40,2039.84 3600.22,2029.32 3595.20,2019.98 3578.11,2029.01 3551.00,2043.27 3529.73,2054.39 3531.27,2116.34 3525.31,2117.01 3519.70,2119.56 3482.43,2089.73 3479.12,2083.47 3461.87,2094.25 3473.61,2120.25 3501.11,2143.47 3500.30,2149.43 3500.06,2160.02 3438.89,2191.81 3403.54,2125.77 3372.79,2141.54 3261.31,2201.65 3233.96,2216.39 3239.12,2227.07 3245.50,2238.96 3250.08,2247.49 3262.77,2270.60 3271.09,2285.74 3279.15,2300.43 3299.80,2289.65 3361.05,2256.92 3435.14,2217.26 3497.07,2184.27 3505.96,2179.53 3511.85,2187.21 3517.47,2191.38 3521.35,2193.55 3527.83,2196.74 3533.84,2198.55 3533.39,2209.65 3533.10,2217.75 3531.94,2229.27 3558.53,2234.31 3576.77,2238.50 3574.40,2252.05 3579.19,2324.62 3614.27,2321.88 3646.27,2315.25 3679.15,2299.88 3656.79,2235.28 3710.08,2198.12 3743.79,2180.29 3778.36,2240.65 3783.72,2236.93 3871.58,2182.61 3891.59,2171.49"/>
    <poly id="140659777" type="building" color="255,230,230" fill="1" layer="-1.00" shape="3312.79,1838.56 3327.13,1833.05 3321.65,1818.85 3307.31,1824.36 3312.79,1838.56"/>
    <poly id="149940448" type="building" color="255,230,230" fill="1" layer="-1.00" shape="3288.12,809.89 3281.13,775.11 3327.69,765.81 3334.68,800.58 3288.12,809.89"/>
    <poly id="149940448#1" type="leisure" color="207,245,201" fill="1" layer="-2.00" shape="3288.12,809.89 3281.13,775.11 3327.69,765.81 3334.68,800.58 3288.12,809.89"/>
    <poly id="154167826" type="building" color="255,230,230" fill="1" layer="-1.00" shape="1164.21,929.35 1169.44,919.80 1162.74,916.14 1156.03,928.48 1159.59,930.37 1159.17,930.93 1163.04,933.32 1164.95,929.84 1164.21,929.35"/>
    <poly id="155188346" type="building" color="255,230,230" fill="1" layer="-1.00" shape="1184.16,961.66 1173.28,956.72 1168.35,967.53 1179.23,972.47 1184.16,961.66"/>
    <poly id="155188347" type="building" color="255,230,230" fill="1" layer="-1.00" shape="1118.51,1074.03 1120.29,1064.68 1108.44,1062.43 1107.68,1066.38 1103.95,1065.68 1102.57,1072.94 1106.24,1073.63 1106.60,1071.76 1118.51,1074.03"/>
    <poly id="155188348" type="building" color="255,230,230" fill="1" layer="-1.00" shape="1142.28,973.52 1146.15,962.62 1133.56,958.18 1129.69,969.08 1142.28,973.52"/>
    <poly id="155188349" type="building" color="255,230,230" fill="1" layer="-1.00" shape="1116.56,1026.81 1119.47,1016.80 1114.21,1015.28 1114.69,1013.62 1108.87,1011.94 1105.48,1023.61 1116.56,1026.81"/>
    <poly id="157363787" type="building" color="255,230,230" fill="1" layer="-1.00" shape="2058.19,1190.58 2064.56,1190.50 2066.59,1190.48 2066.56,1192.59 2066.51,1195.58 2073.25,1195.57 2073.25,1204.28 2070.12,1204.27 2070.18,1211.67 2064.08,1211.71 2058.28,1211.74 2058.23,1205.53 2058.23,1202.38 2058.19,1190.58"/>
    <poly id="158027563" type="industrial" color="209,209,204" fill="1" layer="-3.00" shape="1939.49,1311.37 1963.36,1311.47 1963.47,1285.03 1951.02,1284.98 1939.60,1284.93 1939.49,1311.37"/>
    <poly id="158027684" type="building" color="255,230,230" fill="1" layer="-1.00" shape="1913.81,1333.24 1914.29,1328.00 1921.37,1328.65 1936.71,1330.04 1936.23,1335.27 1931.97,1334.88 1926.21,1334.36 1913.81,1333.24"/>
    <poly id="160439195" type="building" color="255,230,230" fill="1" layer="-1.00" shape="3976.13,1547.68 3981.71,1551.86 3985.38,1546.99 3979.79,1542.81 3976.13,1547.68"/>
    <poly id="160965702" type="residential" color="235,235,227" fill="1" layer="-3.00" shape="1247.29,742.46 1237.63,704.95 1163.24,721.55 1090.55,729.93 1075.55,730.95 1021.77,727.15 987.85,721.81 946.92,711.31 949.13,721.97 945.86,741.85 938.47,754.13 931.24,766.12 925.75,772.10 919.10,777.99 899.16,790.83 777.07,862.90 710.26,756.91 661.59,672.67 596.56,569.32 552.93,498.28 505.81,529.94 501.66,527.88 514.09,488.61 487.71,478.31 425.69,643.27 401.17,723.15 396.82,750.73 392.28,803.82 380.05,974.64 384.83,990.88 400.03,1013.35 453.62,1051.19 468.25,1069.70 475.00,1090.86 476.56,1122.93 483.43,1244.28 485.14,1283.46 469.07,1284.25 362.17,1292.14 357.50,1295.58 346.38,1349.36 345.92,1362.77 440.72,1359.03 442.02,1386.75 456.63,1386.27 457.13,1396.16 422.16,1429.11 455.85,1470.41 463.61,1479.92 446.83,1500.78 443.08,1512.17 436.57,1510.92 396.93,1511.29 380.11,1514.37 320.93,1559.20 364.19,1633.93 397.47,1690.72 417.56,1724.99 452.10,1773.91 476.03,1807.79 496.34,1837.27 524.28,1877.86 549.22,1860.59 614.08,1955.56 710.10,1902.92 712.64,1894.46 702.62,1880.22 711.64,1873.37 740.10,1851.75 729.39,1829.42 718.94,1807.66 705.46,1778.54 749.41,1741.21 770.13,1771.36 779.25,1764.59 810.73,1807.32 840.35,1786.16 857.74,1811.15 891.57,1785.05 899.21,1795.00 968.40,1885.17 957.98,1905.58 974.34,1928.77 929.46,1960.82 1000.33,2060.96 1048.46,2122.39 1056.11,2123.85 1065.08,2119.88 1073.29,2117.70 1083.27,2117.67 1091.47,2119.73 1100.50,2123.12 1109.19,2128.82 1118.65,2142.38 1121.05,2148.49 1122.80,2154.90 1122.96,2163.14 1122.42,2170.75 1119.93,2179.27 1116.73,2186.31 1112.09,2192.61 1105.30,2198.50 1168.30,2284.87 1182.96,2301.72 1217.27,2330.09 1231.35,2352.98 1353.31,2517.75 1433.56,2624.51 1538.76,2771.74 1561.20,2799.02 1600.25,2847.61 1606.83,2843.37 1730.89,2706.71 1763.02,2738.56 1782.27,2757.64 1791.33,2766.68 1809.18,2784.47 1822.39,2796.69 1847.30,2820.52 1861.26,2828.16 1904.15,2867.63 1957.64,2819.28 1916.16,2770.67 1907.58,2760.94 1928.35,2739.48 1803.03,2620.03 1923.66,2487.01 1988.90,2549.68 2069.44,2561.51 2148.70,2573.65 2164.34,2457.45 2208.24,2462.23 2212.83,2485.37 2234.42,2481.06 2217.48,2404.34 2232.49,2403.24 2317.39,2374.95 2265.53,2213.55 2293.44,2202.29 2248.76,2063.36 2225.64,1993.90 2192.58,1938.27 2165.26,1908.19 2124.46,1865.14 2086.11,1835.74 2040.12,1806.12 1971.45,1862.49 1957.86,1843.23 1933.51,1810.96 1894.46,1838.63 1887.04,1828.87 1856.79,1850.71 1848.94,1855.87 1811.33,1805.92 1751.27,1849.85 1658.20,1724.49 1669.17,1716.33 1747.19,1658.09 1772.32,1614.40 1789.93,1615.83 1815.63,1619.46 1829.73,1615.86 1839.46,1607.01 1842.23,1591.78 1853.58,1593.14 1917.24,1600.80 1913.47,1630.93 1921.39,1632.06 1964.66,1638.26 1975.17,1566.08 1965.73,1559.31 1959.64,1549.57 1956.04,1540.40 1783.64,1527.96 1658.15,1518.33 1573.01,1476.41 1617.85,1125.06 1534.31,1149.65 1203.33,1243.89 1195.33,1217.48 1188.13,1201.79 1156.98,1210.36 1145.63,1213.54 1125.90,1178.12 1099.80,1131.76 1128.07,1116.95 1151.64,1116.94 1155.96,1061.84 1166.46,1021.90 1165.81,1017.79 1176.48,987.24 1190.38,956.92 1216.55,916.36 1259.10,862.46 1195.37,793.33 1207.10,783.06 1221.57,771.36 1243.00,758.78 1249.33,756.13 1247.29,742.46"/>
    <poly id="162383245" type="landuse" color="194,194,130" fill="1" layer="-3.00" shape="1759.22,1838.17 1677.68,1728.15 1766.97,1661.61 1832.38,1695.94 1809.60,1741.15 1791.12,1733.22 1768.31,1751.02 1805.15,1805.81 1759.22,1838.17"/>
    <poly id="171494030" type="parking" color="184,184,179" fill="1" layer="-1.00" shape="3451.56,1871.23 3461.38,1895.96 3448.11,1902.03 3431.99,1863.54 3446.10,1857.87 3451.56,1871.23"/>
    <poly id="171930373" type="building" color="255,230,230" fill="1" layer="-1.00" shape="2874.26,859.81 2871.96,845.36 2858.76,847.44 2861.05,861.89 2874.26,859.81"/>
    <poly id="171930374" type="building" color="255,230,230" fill="1" layer="-1.00" shape="2796.12,870.21 2794.16,857.05 2781.11,859.00 2783.08,872.16 2796.12,870.21"/>
    <poly id="171930375" type="building" color="255,230,230" fill="1" layer="-1.00" shape="2718.63,866.77 2720.13,875.75 2709.25,877.55 2707.75,868.57 2718.63,866.77"/>
    <poly id="171930377" type="building" color="255,230,230" fill="1" layer="-1.00" shape="2886.72,914.36 2875.94,915.51 2874.89,905.73 2872.04,906.03 2871.34,899.48 2884.97,898.02 2886.72,914.36"/>
    <poly id="171930379" type="building" color="255,230,230" fill="1" layer="-1.00" shape="2786.26,933.72 2797.11,932.21 2795.06,917.56 2797.69,917.19 2796.79,910.75 2783.32,912.63 2786.26,933.72"/>
    <poly id="171930381" type="building" color="255,230,230" fill="1" layer="-1.00" shape="2712.74,964.84 2712.02,957.80 2709.28,958.08 2709.04,955.68 2703.09,956.30 2704.05,965.72 2712.74,964.84"/>
    <poly id="171930712" type="building" color="255,230,230" fill="1" layer="-1.00" shape="1931.16,949.73 1929.95,930.59 1962.59,928.53 1963.79,947.69 1931.16,949.73"/>
    <poly id="171931223" type="building" color="255,230,230" fill="1" layer="-1.00" shape="3013.36,1310.29 3013.97,1310.22 3021.22,1309.44 3033.83,1308.08 3041.96,1307.20 3033.66,1230.87 3005.06,1233.97 3013.36,1310.29"/>
    <poly id="171931224" type="building" color="255,230,230" fill="1" layer="-1.00" shape="2897.65,1268.86 2892.69,1269.56 2894.54,1282.81 2899.50,1282.11 2897.65,1268.86"/>
    <poly id="171931225" type="building" color="255,230,230" fill="1" layer="-1.00" shape="2880.72,1274.10 2882.36,1285.27 2887.30,1284.56 2885.67,1273.37 2880.72,1274.10"/>
    <poly id="171931226" type="building" color="255,230,230" fill="1" layer="-1.00" shape="2989.93,1278.70 2995.78,1278.06 2995.47,1275.16 3001.92,1274.46 3005.27,1305.41 2998.63,1306.12 2996.88,1289.93 2991.21,1290.53 2989.93,1278.70"/>
    <poly id="171931227" type="building" color="255,230,230" fill="1" layer="-1.00" shape="2984.71,1252.49 2983.71,1244.38 2997.46,1242.70 2998.46,1250.81 2984.71,1252.49"/>
    <poly id="171931228" type="building" color="255,230,230" fill="1" layer="-1.00" shape="3000.24,1263.22 2998.71,1250.79 2998.46,1250.81 2984.71,1252.49 2978.78,1253.22 2980.32,1265.65 3000.24,1263.22"/>
    <poly id="171931229" type="building" color="255,230,230" fill="1" layer="-1.00" shape="2997.18,1225.73 3002.53,1225.16 3002.58,1225.58 3003.33,1232.49 2997.98,1233.07 2997.18,1225.73"/>
    <poly id="171931230" type="building" color="255,230,230" fill="1" layer="-1.00" shape="2963.54,1239.72 2961.49,1220.87 2996.24,1217.10 2997.18,1225.73 2997.98,1233.07 2998.29,1235.95 2963.54,1239.72"/>
    <poly id="171931231" type="building" color="255,230,230" fill="1" layer="-1.00" shape="3002.58,1225.58 3034.29,1222.15 3034.38,1223.02 3035.21,1230.71 3033.66,1230.87 3005.06,1233.97 3003.50,1234.14 3003.33,1232.49 3002.58,1225.58"/>
    <poly id="171931232" type="building" color="255,230,230" fill="1" layer="-1.00" shape="2893.51,1340.48 2892.55,1331.47 2891.53,1321.87 2885.78,1322.48 2885.50,1319.97 2885.14,1316.49 2852.32,1319.99 2836.50,1321.68 2837.14,1327.66 2831.53,1328.27 2833.52,1346.86 2893.51,1340.48"/>
    <poly id="172701932" type="parking" color="184,184,179" fill="1" layer="-1.00" shape="2979.16,1373.47 2977.91,1359.08 2976.53,1349.59 2974.01,1349.64 2973.42,1343.38 2933.71,1347.25 2928.93,1347.70 2922.56,1348.30 2925.58,1379.48 2979.16,1373.47"/>
    <poly id="173256966" type="parking" color="184,184,179" fill="1" layer="-1.00" shape="3599.83,1867.41 3586.02,1854.96 3589.96,1843.26 3585.03,1841.48 3602.32,1797.80 3603.57,1792.00 3606.92,1793.35 3612.00,1785.85 3627.92,1800.87 3624.70,1804.91 3646.24,1823.36 3613.09,1857.97 3610.41,1855.58 3599.83,1867.41"/>
    <poly id="173256967" type="parking" color="184,184,179" fill="1" layer="-1.00" shape="3603.84,1850.16 3598.27,1844.91 3597.97,1842.13 3599.42,1839.44 3603.56,1841.72 3615.34,1812.91 3611.26,1810.91 3612.17,1809.35 3614.15,1808.39 3617.26,1808.79 3618.93,1810.22 3616.29,1813.64 3624.67,1821.38 3605.22,1843.00 3608.15,1845.68 3603.84,1850.16"/>
    <poly id="173611785" type="building" color="255,230,230" fill="1" layer="-1.00" shape="1986.84,977.24 1986.34,969.42 1978.97,969.89 1973.60,970.22 1973.45,967.78 1978.82,967.44 1986.19,966.98 1983.85,929.66 2005.88,928.29 2010.92,927.97 2032.85,926.61 2035.31,966.01 2035.63,970.99 2035.83,974.18 2013.02,975.59 1986.84,977.24"/>
    <poly id="173611786" type="parking" color="184,184,179" fill="1" layer="-1.00" shape="1972.13,996.02 1971.72,989.31 1900.26,993.44 1900.67,1000.15 1972.13,996.02"/>
    <poly id="176346283" type="building" color="255,230,230" fill="1" layer="-1.00" shape="1722.36,1492.56 1723.34,1492.66 1728.67,1493.04 1729.75,1494.42 1733.59,1494.67 1734.61,1493.48 1739.63,1493.83 1740.74,1493.51 1741.32,1492.20 1741.15,1490.85 1739.92,1489.92 1740.62,1480.46 1742.69,1452.96 1743.05,1448.12 1744.39,1447.16 1780.85,1451.66 1782.03,1442.37 1782.88,1435.57 1767.13,1433.56 1746.43,1430.91 1745.42,1429.63 1746.05,1424.77 1751.41,1383.85 1744.04,1382.89 1735.67,1381.80 1730.52,1421.01 1729.66,1427.60 1727.96,1428.86 1691.04,1423.74 1689.95,1431.56 1688.87,1439.30 1724.37,1444.21 1725.79,1444.41 1726.81,1445.76 1726.50,1449.80 1724.26,1479.27 1723.57,1488.69 1722.30,1488.85 1721.80,1489.23 1721.49,1489.74 1721.23,1490.49 1721.27,1491.18 1721.54,1491.91 1721.85,1492.28 1722.36,1492.56"/>
    <poly id="182527149" type="building" color="255,230,230" fill="1" layer="-1.00" shape="1891.23,1073.12 1889.49,1053.64 1894.51,1053.20 1896.25,1072.68 1891.23,1073.12"/>
    <poly id="182527150" type="building" color="255,230,230" fill="1" layer="-1.00" shape="1976.05,1121.67 1966.33,1127.61 1964.92,1125.16 1959.71,1128.16 1961.12,1130.60 1967.89,1141.87 1987.37,1130.17 1980.64,1118.97 1979.28,1116.66 1974.69,1119.35 1976.05,1121.67"/>
    <poly id="182527151" type="building" color="255,230,230" fill="1" layer="-1.00" shape="2023.98,1120.33 2023.24,1122.63 2038.26,1127.19 2041.50,1116.59 2030.58,1113.25 2031.83,1109.05 2027.72,1107.84 2026.48,1112.04 2026.14,1113.02 2020.64,1111.40 2018.48,1118.71 2023.98,1120.33"/>
    <poly id="182527152" type="building" color="255,230,230" fill="1" layer="-1.00" shape="2000.34,1116.69 2011.17,1119.96 2014.80,1108.03 2003.96,1104.76 2000.34,1116.69"/>
    <poly id="182527153" type="building" color="255,230,230" fill="1" layer="-1.00" shape="1979.48,1161.06 1973.33,1150.23 1982.84,1144.86 1988.99,1155.70 1979.48,1161.06"/>
    <poly id="184222789" type="shop" color="237,199,255" fill="1" layer="-1.00" shape="2266.67,1004.87 2272.89,1012.08 2278.50,1020.23 2283.01,1029.01 2284.58,1036.32 2284.88,1052.26 2279.04,1090.81 2229.55,1084.65 2231.07,1071.00 2215.13,1068.77 2221.11,1027.48 2265.51,1024.19 2263.64,1006.47 2266.67,1004.87"/>
    <poly id="184222790" type="building" color="255,230,230" fill="1" layer="-1.00" shape="2252.64,1131.56 2239.71,1130.09 2241.34,1115.86 2250.77,1116.93 2250.44,1119.84 2253.94,1120.23 2252.64,1131.56"/>
    <poly id="184222791" type="building" color="255,230,230" fill="1" layer="-1.00" shape="2258.92,1006.76 2260.12,1019.54 2252.69,1020.24 2252.56,1018.85 2228.93,1021.03 2227.98,1010.74 2251.59,1008.54 2251.49,1007.45 2258.92,1006.76"/>
    <poly id="184222794" type="building" color="255,230,230" fill="1" layer="-1.00" shape="2234.60,1037.02 2234.59,1029.96 2221.58,1028.48 2220.70,1035.19 2234.60,1037.02"/>
    <poly id="184222795" type="building" color="255,230,230" fill="1" layer="-1.00" shape="2110.32,1027.83 2149.86,1020.51 2152.13,1032.71 2112.59,1040.04 2110.32,1027.83"/>
    <poly id="184222796" type="building" color="255,230,230" fill="1" layer="-1.00" shape="2190.70,1008.10 2189.85,999.49 2181.65,1000.29 2182.48,1008.90 2190.70,1008.10"/>
    <poly id="184222797" type="building" color="255,230,230" fill="1" layer="-1.00" shape="2044.72,1013.58 2084.70,1006.06 2086.96,1017.99 2046.98,1025.51 2044.72,1013.58"/>
    <poly id="184222798" type="building" color="255,230,230" fill="1" layer="-1.00" shape="2199.76,1081.54 2198.93,1087.03 2221.34,1090.40 2222.17,1084.90 2199.76,1081.54"/>
    <poly id="184222799" type="building" color="255,230,230" fill="1" layer="-1.00" shape="2208.98,1068.64 2208.16,1074.95 2227.70,1077.49 2228.52,1071.18 2208.98,1068.64"/>
    <poly id="184222800" type="building" color="255,230,230" fill="1" layer="-1.00" shape="2096.30,1011.28 2090.97,1012.41 2092.17,1018.07 2097.50,1016.95 2096.30,1011.28"/>
    <poly id="184222801" type="building" color="255,230,230" fill="1" layer="-1.00" shape="2192.54,1072.04 2187.32,1071.92 2187.12,1080.48 2192.34,1080.61 2192.54,1072.04"/>
    <poly id="184222802" type="building" color="255,230,230" fill="1" layer="-1.00" shape="2204.44,1072.89 2195.75,1072.21 2196.81,1058.82 2205.50,1059.50 2204.44,1072.89"/>
    <poly id="184222803" type="building" color="255,230,230" fill="1" layer="-1.00" shape="2234.59,1029.96 2239.72,1029.97 2238.87,1037.67 2234.60,1037.02 2234.59,1029.96"/>