<?xml version="1.0" encoding="UTF-8"?>

<!-- generated on Mon May 14 19:14:43 2018 by SUMO duarouter Version 0.32.0
<?xml version="1.0" encoding="UTF-8"?>

<configuration xmlns:xsi="http://www.w3.org/2001/XMLSchema-instance" xsi:noNamespaceSchemaLocation="http://sumo.dlr.de/xsd/duarouterConfiguration.xsd">

    <input>
        <net-file value="dresden.net.xml"/>
        <route-files value="trips.trips.xml"/>
    </input>

    <output>
        <output-file value="dresden.rou.xml"/>
        <alternatives-output value="dresden.rou.alt.xml"/>
    </output>

    <processing>
        <ignore-errors value="true"/>
    </processing>

    <time>
        <begin value="0"/>
        <end value="150.0"/>
    </time>

    <report>
        <no-warnings value="true"/>
        <no-step-log value="true"/>
    </report>

</configuration>
-->

<routes xmlns:xsi="http://www.w3.org/2001/XMLSchema-instance" xsi:noNamespaceSchemaLocation="http://sumo.dlr.de/xsd/routes_file.xsd">
    <vehicle id="0" depart="0.00">
        <route edges="-2643714#4 -2643714#3 -3194550#6 -3194550#5 -3194550#4 -3194550#3 -3194550#2 -3194550#1 -3194550#0 -4802054#2 -4802054#1 -4802054#0 -4802053#36 -4802053#35 -4802053#34 -4802053#33 -4802053#32 -4802053#31 -4802053#30 -4802053#29 -4802053#28 -4802053#27 -4802053#26 -4802053#25 -4802053#24 -4802053#23 -4802053#22 -4802053#21 -4802053#20 -4802053#19 -4802053#18 -4802053#17 -4802053#16 -4802053#15 -4802053#14 -4802053#13 -4802053#12 -4802053#11 -4802053#10 -4802053#9 -4802053#8 -4802053#7 -4802053#6 -4802053#5 -4802053#4 -4802053#3 -4802053#2 -4802053#1 -4802053#0 4802053#0"/>
    </vehicle>
    <vehicle id="1" depart="1.00">
        <route edges="22989068#0 -22989068#0 -314198233#9 -314198233#8 -314198233#7 -314198233#6 -314198233#5 -314198233#4 -314198233#3 -314198233#2 -314198233#1 -314198233#0 -4428743#4 -4428743#3 -4428743#2 -4428743#1 -4428743#0 -4610813#3 -4610813#2 -4610813#1 -4610813#0 -245617484#3 -245617484#2 -245617484#1 -245617484#0 4520518#0 -4520518#0"/>
    </vehicle>
    <vehicle id="2" depart="2.00">
        <route edges="4766024#0 4766024#1 4766024#2 4766024#3 572396430 552670077#0 552670077#1 572396443#0 572396443#1 572396436 552670075#0 552670075#1 572396453 552670074#0 552670074#1 572396449 552670076 572396460#0 572396460#1 572396456#0 572396456#1 4741667#0 4741667#1 4741667#2 572396467 572396463 553043576#0 553043576#1 572396481#0 572396481#1 572396475#0 572396475#1 572396498 553043577#0 553043577#1 572396494 552670082#0 552670082#1 552670082#2 552670082#3 552670082#4 552670082#5 552670082#6 552670082#7 206398001 4761921#0 4761921#1 4756452#0 4756452#1 4756452#2 4756452#3 206263279 4761915#0 4761915#1 4761915#2 4761919#0 4761919#1 4761919#2 4761919#3 4761919#4 4761919#5 4761919#6 553043591 56009960#0 56009960#1 553043590 572396586 56009961#0 56009961#1 572396580 572396593#0 572396593#1 572396590 572112814 572396598 572396621 572396602 572112810#0 572112810#1 572396616 572112820 261525082#0 261525082#1 261458622#0 261458622#1 572396664#0 572396664#1 572396660 30779238 30779237 572396648 4801629 261559644#0 261559644#1 54629506#0"/>
    </vehicle>
    <vehicle id="3" depart="3.00">
        <route edges="-4604754#0 314198233#11 314198233#12 314198233#13 314198233#14 314198233#15 314198233#16 314198233#17 44104542#0 44104542#1 44104542#2 123#4 123#5 123#6 123#7 123#8 123#9 123#10 123#11 123#12 14344080#0 14344080#1 14344080#2 14344080#3 203673742 11005721#0 11005721#1 11005721#2 11005721#3 11005721#4 11005721#5 11005721#6 -525953032#4 -525953032#3 -525953032#2 -525953032#1 -4806610#13 -4806610#12 -4806610#11 -4806610#10 -4806610#9 -4806610#8 -4806610#7 -4806610#6 -4806610#5 -4806610#4 -4806610#3 -4806610#2 -4806610#1 -4806610#0 110#10 110#11 110#12 110#13 24560425#0"/>
    </vehicle>
    <vehicle id="4" depart="4.00">
        <route edges="-110#18 -110#17 -110#16 -110#15 -110#14 -110#13 -110#12 -110#11 -110#10 4806610#0 4806610#1 4806610#2 4806610#3 4806610#4 4806610#5 4806610#6 4806610#7 4806610#8 4806610#9 4806610#10 4806610#11 4806610#12 4806610#13 525953032#1 525953032#2 525953032#3 525953032#4 11005722#0 11005722#1 11005722#2 11005722#3 11005722#4 11005722#5 11005722#6 14344097 250470752#0 250470752#1 250470752#2 -123#12 -123#11 -123#10 -123#9 -123#8 -123#7 -123#6 -123#5 -123#4 -123#3 -123#2 -123#1 -123#0 14329418#0 14329418#1 14329418#2 14329418#3 14329418#4 14329418#5 14329418#6 14329418#7 14329418#8 14329418#9 4761918 206263280 256468405 4756452#0 4756452#1 4756452#2 4756452#3 4761912#0 4761912#1 -28935805#10 -28935805#9 -28935805#8 -28935805#7 -28935805#6 -28935805#5 -28935805#4 28935805#4"/>
    </vehicle>
    <vehicle id="6" depart="6.00">
        <route edges="3128497#1 3128497#2 3128497#3 4802056#0 4802056#1 4802056#2 4802056#3 4802056#4 24644909#3 174342934#0 174342934#1 30714967#0 30714967#1 30714967#2 30714967#3 30714967#4 30714967#5 3194452#0 3194452#1 3194452#2 3194452#3 3194452#4 3194452#5 3194452#6 3194452#7 3194452#8 3194452#9 3194452#10 3194452#11 4830078#0 4830078#1 4830078#2 4830078#3 557715637 553722978#0 553722978#1 553722978#2 553722977 573509636#0 573509636#1 4830077#0 4830077#1 572386738 572386737 41886409#0 41886409#1 41886409#2 386620982 2630161 572363926#0 572363926#1 572363918 386620981 250465597#0 250465597#1 261559641#0 261559641#1 261559641#2 250469886 2558273#0 2558273#1 2558273#2 243106263#0 243106263#1 218731038#0 218731038#1 561061264#0 561061264#1 561061264#2 484174957#4 484174957#5 484174957#6 484174957#7 484174957#8 484174957#9 484174957#10 484174957#11 484174957#12 484174957#13 484174957#14 484174957#15 -71002611#6 -71002611#5 71002611#5"/>
    </vehicle>
    <vehicle id="8" depart="8.00">
        <route edges="-4766022#0 316223234#0 316223234#1 163823233#0 163823233#1 572396628#0 572396628#1 572396625 4761926 572396673 572396669#0 572396669#1 113045859#0 113045859#1 113045859#2 113045859#3 113045859#4 113045859#5 250470756#0 250470756#1 250470756#2 250470756#3 250470754#0 250470754#1 250470754#2 250470757#0 250470757#1 496200353 496200352 113045845#0 113045845#1 113045845#2 113045845#3 113045845#4 113045845#5 113045845#6 113045845#7 113045845#8 113045845#9 113045845#10 113045845#11 113045845#12 113045845#13 113045845#14 113045845#15 113045845#16 113045845#17 113045886 248601783#0 248601783#1 309474890 31822733 41879205 309474892 2533851#0 2533851#1 2533851#2 113045854 -41886408 -572363943#1 -572363943#0 -3237855#1 -3237855#0 -572363949 -30496850#2 -30496850#1 -30496850#0 572363958 3194441#0 3194441#1 572386739 553722973#0 553722973#1 37935912#0 37935912#1 37935912#2 37935912#3 37935912#4 557715639 4830076#0 4830076#1 4830076#2 557715638 4830075#0 4830075#1 4830075#2 4830075#3 4830075#4 4830075#5 4830075#6 4830075#7 4830075#8 4830075#9 4830075#10 4830075#11 4830075#12 4830075#13 4830075#14 4830075#15 4830075#16 4830075#17 4830075#18 4830075#19 4830075#20 4830075#21 4830075#22 4830075#23 4830075#24 4830075#25 4830075#26 4830075#27 174342934#1 30714967#0 30714967#1 30714967#2 30714967#3 30714967#4 30714967#5 30714967#6 30714967#7 30714967#8 30714967#9 -30714967#9"/>
    </vehicle>
    <vehicle id="10" depart="10.00">
        <route edges="-120#0 552675116#0 552675116#1 557682991 4621412 558853108 557682989 573538498 113045845#4 113045845#5 113045845#6 113045845#7 113045845#8 113045845#9 113045845#10 113045845#11 113045845#12 113045845#13 113045845#14 113045845#15 113045845#16 113045845#17 113045886 248601783#0 248601783#1 309474890 31822733 41879205 309474892 2533851#0 2533851#1 2533851#2 113045854 -41886408 -572363943#1 -572363943#0 -3237855#1 -3237855#0 -572363949 -30496850#2 -30496850#1 -30496850#0 572363958 3194441#0 3194441#1 572386739 553722973#0 553722973#1 37935912#0 37935912#1 37935912#2 37935912#3 37935912#4 557715639 4830076#0 4830076#1 4830076#2 557715638 4830075#0 4830075#1 4830075#2 4830075#3 4830075#4 4830075#5 4830075#6 -24518826#11 -24518826#10 -24518826#9 -24518826#8 -24518826#7 -24518826#6 -24518826#5 -24518826#4 -24518826#3 -24518826#2 -24518826#1 -24518826#0 -24518829#13 -24518829#12 -24518829#11 -24518829#10 -24518829#9 -24518829#8 -24518829#7 -24518829#6 -24518829#5 -24518829#4 -24518829#3 -24518829#2 -24518829#1 -24518829#0 -30502271#18 -30502271#17 -30502271#16 -30502271#15 -30502271#14 -30502271#13 -30502271#12 -30502271#11 -30502271#10 -30502271#9 -30502271#8 207546094#17 207546094#18 207546094#19 207546094#20 207546094#21 207546094#22 207546094#23 207546094#24 207546094#25 207546094#26 207546094#27 207546094#28 207546094#29 207546094#30 207546094#31 207546094#32 207546094#33 207546094#34"/>
    </vehicle>
    <vehicle id="12" depart="12.00">
        <route edges="-4732225#3 107465127#2 4802056#0 4802056#1 4802056#2 4802056#3 4802056#4 24644909#3 174342934#0 174342934#1 30714967#0 30714967#1 30714967#2 30714967#3 30714967#4 30714967#5 3194452#0 3194452#1 3194452#2 3194452#3 3194452#4 3194452#5 3194452#6 3194452#7 3194452#8 3194452#9 3194452#10 3194452#11 4830078#0 4830078#1 4830078#2 4830078#3 557715637 553722978#0 553722978#1 553722978#2 553722977 573509636#0 573509636#1 4830077#0 4830077#1 572386738 572386737 41886409#0 41886409#1 41886409#2 386620982 2630161 572363926#0 572363926#1 572363918 386620981 250465597#0 250465597#1 261559641#0 261559641#1 261559641#2 250469886 2558273#0 2558273#1 2558273#2 243106263#0 243106263#1 218731038#0 218731038#1 561061264#0 561061264#1 561061264#2 561061263#0 561061263#1 561061263#2 561061263#3 561061263#4 314198233#0 314198233#1 314198233#2 314198233#3 314198233#4 314198233#5 314198233#6 314198233#7 314198233#8 314198233#9 314198233#10 314198233#11 314198233#12 314198233#13 314198233#14 314198233#15 314198233#16 314198233#17 44104542#0 44104542#1 44104542#2 -123#3 -123#2 -123#1 123#1"/>
    </vehicle>
    <vehicle id="13" depart="13.00">
        <route edges="216457072#3 165744819#0 165744819#1 165744819#2 165744819#3 4830075#7 4830075#8 4830075#9 4830075#10 4830075#11 4830075#12 4830075#13 4830075#14 4830075#15 4830075#16 4830075#17 4830075#18 4830075#19 4830075#20 4830075#21 4830075#22 4830075#23 4830075#24 4830075#25 4830075#26 4830075#27 -174342934#0 -24644909#3 -4802056#4 -4802056#3 -4802056#2 -4802056#1 -4802056#0 3128497#4"/>
    </vehicle>
    <vehicle id="14" depart="14.00">
        <route edges="2643714#3 -2643714#3 -2643714#2 -2643714#1 -2643714#0"/>
    </vehicle>
    <vehicle id="15" depart="15.00">
        <route edges="-25196653#5 -25196653#4 -25196653#3 -25196653#2 -25196653#1 -25196653#0 243591160#2 243591160#3 243591160#4 -4806604#1 -4806604#0 525953032#3 525953032#4 11005722#0 11005722#1 11005722#2 11005722#3 11005722#4 11005722#5 11005722#6 14344097 250470752#0 250470752#1 250470752#2 -123#12 -123#11 -123#10 -123#9 -123#8 -123#7 -123#6 -123#5 -123#4 -123#3 -123#2 -123#1 -123#0 14329418#0 14329418#1 14329418#2 14329418#3 14329418#4 14329418#5 14329418#6 14329418#7 14329418#8 14329418#9 4761918 206263280 256468405 4756452#0 4756452#1 4756452#2 4756452#3 4761912#0 4761912#1 -28935805#10 -28935805#9 -28935805#8 -28935805#7 -28935805#6 -28935805#5 -28935805#4 -28935805#3"/>
    </vehicle>
    <vehicle id="16" depart="16.00">
        <route edges="4588271#0 -4588271#0 -327345180#5 -327345180#4 -327345180#3 -327345180#2 -327345180#1 -327345180#0 -134828657 -572386717 -112#1 -112#0 -572386718 -134828655 -572386719 -572386720 -152559511 -572386809 -313586841 -572386812 -553703844 -572363821 -572386813 -572386814#1 -572386814#0 -553703845#1 -553703845#0 -572363826 -229451071#3 -229451071#2 -229451071#1 -229451071#0 -229451070#1 -229451070#0 -551673053 -27854403 -572363840 -572363855#1 -572363855#0 -572363865#1 -572363865#0 -27854402#2 -27854402#1 -27854402#0 -553757156 -174342935#11 -174342935#10 -174342935#9 -174342935#8 -174342935#7 -174342935#6 -174342935#5 -174342935#4 -174342935#3 -174342935#2 -174342935#1 -174342935#0 -30714967#9 -30714967#8 -30714967#7 -30714967#6 -30714967#5 -30714967#4 -30714967#3 -30714967#2 -30714967#1 -30714967#0 -174342934#1 -174342934#0 -24644909#3 -4802056#4 -4802056#3 -4802056#2 -4802056#1 -4802056#0 -107465127#2 -107465127#1 107465127#1"/>
    </vehicle>
    <vehicle id="17" depart="17.00">
        <route edges="-30779380#14 -30779380#13 52121184#0 52121184#1 163822557#0 163822557#1 220068432#4 4766024#3 572396430 552670077#0 552670077#1 572396443#0 572396443#1 572396436 552670075#0 552670075#1 572396453 552670074#0 552670074#1 572396449 552670076 572396460#0 572396460#1 572396456#0 572396456#1 4741667#0 4741667#1 4741667#2 572396467 572396463 553043576#0 553043576#1 572396481#0 572396481#1 572396475#0 572396475#1 572396498 553043577#0 553043577#1 572396494 552670082#0 552670082#1 552670082#2 552670082#3 552670082#4 552670082#5 552670082#6 552670082#7 206398001 4761921#0 4761921#1 4756452#0 4756452#1 4756452#2 4756452#3 206263279 4761917#0 4761917#1 4761917#2 4761917#3 4761917#4 4761917#5 4761917#6 123#0 123#1 123#2 123#3 -44104542#2 -44104542#1 -44104542#0 -314198233#17 -314198233#16 -314198233#15 -314198233#14 -314198233#13 -314198233#12 -314198233#11 -314198233#10 -314198233#9 -314198233#8 -314198233#7 -314198233#6 -314198233#5 -314198233#4 -314198233#3 -314198233#2 -314198233#1 -314198233#0 -561061263#4 -561061263#3 -561061263#2 -561061263#1 -561061263#0 -561061264#2 -561061264#1 -561061264#0 -218731038#1 -218731038#0 -2630148 -30986272#3 -30986272#2 -30986272#1 -30986272#0 -53862799#1 -53862799#0 -4578009#1 -4578009#0 28262819#3 28262819#4 -4372972#2"/>
    </vehicle>
    <vehicle id="18" depart="18.00">
        <route edges="-4214226#6 -4214226#5 -4214226#4 -4214226#3 -4214226#2 -4214226#1 -4214226#0 -113045896#3 -113045896#2 -113045896#1 -113045896#0 -11005744#3 -11005744#2 -11005744#1 -11005744#0 -4214225#2 -4214225#1 -4214225#0 -327345180#11 -327345180#10 -327345180#9 28466997#0 28467007"/>
    </vehicle>
    <vehicle id="19" depart="19.00">
        <route edges="-220202647#1 -220202647#0 -4604754#1 -4604754#0 -314198233#10 -314198233#9 -314198233#8 -314198233#7 -314198233#6 -314198233#5 -314198233#4 -4830003#2 -4830003#1 -4830003#0 32507927#0 32507927#1 32507927#2"/>
    </vehicle>
    <vehicle id="20" depart="20.00">
        <route edges="-4766024#2 4766024#2 4766024#3 572396425 4766019#0 4766019#1 4766019#2 4766019#3 572396419 572396414#0 -4766022#7 -4766022#6 -4766022#5 -4766022#4 -4766022#3 -4766022#2 -4766022#1 -4766022#0 316223234#0 316223234#1 163823233#0 163823233#1 572396628#0 572396628#1 572396625 4761926 572396673 572396669#0 572396669#1 113045859#0 113045859#1 113045859#2 113045859#3 113045859#4 113045859#5 250470756#0 250470756#1 250470756#2 250470756#3 250470754#0 250470754#1 250470754#2 250470757#0 250470757#1 496200353 496200352 113045845#0 113045845#1 113045845#2 113045845#3 113045845#4 113045845#5 113045845#6 113045845#7 113045845#8 113045845#9 113045845#10 113045845#11 113045845#12 113045845#13 113045845#14 113045845#15 113045845#16 113045845#17 113045886 248601783#0 248601783#1 309474890 31822733 30559663 30560725 309474888 23282870#0 23282870#1 313587139#0 313587139#1 313587139#2 -572386730#1 -572386730#0 -28123396#4 -28123396#3 -28123396#2 -28123396#1 -28123396#0 -572386792 -558821156 -557715649 -553703849"/>
    </vehicle>
    <vehicle id="21" depart="21.00">
        <route edges="-207546094#6 207546094#6 207546094#7 207546094#8 207546094#9 207546094#10 207546094#11 207546094#12 207546094#13 207546094#14 207546094#15 207546094#16 30502271#8 30502271#9 30502271#10 30502271#11 30502271#12 30502271#13 30502271#14 30502271#15 30502271#16 30502271#17 30502271#18 24518829#0 24518829#1 24518829#2 24518829#3 24518829#4 24518829#5 24518829#6 24518829#7 24518829#8 24518829#9 24518829#10 24518829#11 24518829#12 24518829#13 24518826#0 24518826#1 24518826#2 24518826#3 24518826#4 24518826#5 24518826#6 24518826#7 24518826#8 24518826#9 24518826#10 24518826#11 -165744819#3 -165744819#2 -165744819#1 -165744819#0 3194452#10 3194452#11 4830078#0 4830078#1 4830078#2 4830078#3 557715637 553722978#0 553722978#1 553722978#2 553722977 573509636#0 573509636#1 4830077#0 4830077#1 572386738 572363978 41886407 572386735 386620983 572386734 386620986 572363973 41886408 -113045854 42725936#0 42725936#1 249118608#0 249118608#1 4766027#0 4766027#1 309474891 122 30559972 309474893 31822598#0 31822598#1 31822598#2 31822598#3 31822598#4 31822598#5 31822598#6 31822598#7 31822598#8 31822598#9 31822598#10 31822598#11 250470755#0 250470755#1 250470755#2 203673743#0 203673743#1 203673743#2 496200351#0 496200351#1 496200350 250470753#0 250470753#1"/>
    </vehicle>
    <vehicle id="22" depart="22.00">
        <route edges="35573875#1 30482589#0 30482589#1 -4802053#35 -4802053#34 -4802053#33 -4802053#32 -4802053#31 -4802053#30 -4802053#29 -4802053#28 -4802053#27 -4802053#26 -4802053#25 -4802053#24 -4802053#23 -4802053#22 -4802053#21 -4802053#20 -4802053#19 -4802053#18 -4802053#17 -4802053#16 -4802053#15 -4802053#14 -4802053#13 -4802053#12 -4802053#11 -4802053#10 -4802053#9 -4802053#8 -4802053#7 -4802053#6 -4802053#5 -4802053#4 -4802053#3 -4802053#2 -4802053#1 -4802053#0 24518826#9 24518826#10 24518826#11 4830075#7 4830075#8 4830075#9 4830075#10 4830075#11 4830075#12 4830075#13 4830075#14 4830075#15 4830075#16 4830075#17 4830075#18 4830075#19 4830075#20 4830075#21 4830075#22 4830075#23 4830075#24 4830075#25 4830075#26 4830075#27 -174342934#0 -24644909#3 -4802056#4 -4802056#3 -4802056#2 -4802056#1 -4802056#0 -107465127#2 -107465127#1 107465127#1"/>
    </vehicle>
    <vehicle id="23" depart="23.00">
        <route edges="-237425290#8 237425290#8 237425290#9 237425291#0 237425291#1 237425291#2 113045859#2 113045859#3 113045859#4 113045859#5 250470756#0 250470756#1 250470756#2 250470756#3 250470752#0 250470752#1 250470752#2 -123#12 -123#11 4607961#0 4607961#1 4607961#2 4607961#3 4607961#4 4607961#5 4607961#6 121#0 121#1 28806214#0 28806214#1 -28806214#1"/>
    </vehicle>
    <vehicle id="24" depart="24.00">
        <route edges="4830004#2 552675116#0 552675116#1 557682991 4621412 558853108 557682989 573538498 113045845#4 113045845#5 113045845#6 113045845#7 113045845#8 113045845#9 113045845#10 113045845#11 113045845#12 113045845#13 113045845#14 113045845#15 113045845#16 113045845#17 113045886 248601783#0 248601783#1 309474890 31822733 41879205 309474892 2533851#0 2533851#1 2533851#2 113045854 -41886408 -572363943#1 -572363943#0 -3237855#1 -3237855#0 -572363949 -30496850#2 -30496850#1 -30496850#0 572363958 3194441#0 3194441#1 572386739 553722973#0 553722973#1 37935912#0 37935912#1 37935912#2 37935912#3 37935912#4 557715639 4830076#0 4830076#1 4830076#2 557715638 4830075#0 4830075#1 4830075#2 4830075#3 4830075#4 4830075#5 4830075#6 -24518826#11 -24518826#10 -24518826#9 -24518826#8 -24518826#7 -24518826#6 -24518826#5 -24518826#4 -24518826#3 -24518826#2 -24518826#1 -24518826#0 -24518829#13 -24518829#12"/>
    </vehicle>
    <vehicle id="25" depart="25.00">
        <route edges="4607676#2 -4607961#2 -4607961#1 -4607961#0 123#11 123#12 14344080#0 14344080#1 14344080#2 14344080#3 203673742 11005721#0 11005721#1 11005721#2 11005721#3 11005721#4 11005721#5 11005721#6 -525953032#4 -525953032#3 -525953032#2 -525953032#1 -4806610#13 -4806610#12 -4806610#11 -4806610#10 -4806610#9 -4806610#8 -4806610#7 -4806610#6 -4806610#5 -4806610#4 -4806610#3 -4806610#2 -4806610#1 -4806610#0 -110#9 -110#8 -110#7 -110#6 -110#5 -110#4 110#4"/>
    </vehicle>
    <vehicle id="26" depart="26.00">
        <route edges="-30502271#9 30502271#9 30502271#10 30502271#11 30502271#12 30502271#13 30502271#14 30502271#15 30502271#16 30502271#17 30502271#18 24518829#0 24518829#1 24518829#2 24518829#3 24518829#4 24518829#5 24518829#6 24518829#7 24518829#8 24518829#9 24518829#10 24518829#11 24518829#12 24518829#13 -255799728#18 -255799728#17 -255799728#16 -255799728#15 -255799728#14 -255799728#13 -255799728#12 -255799728#11 -255799728#10 -255799728#9 -255799728#8 -255799728#7 -255799728#6 -255799728#5 -255799728#4 -255799728#3 -255799728#2 -255799728#1 -255799728#0 -102714707 -4802056#4 -4802056#3 -4802056#2 -4802056#1 -4802056#0 -3128497#3 -4732226 23208538#0 23208538#1 23315873#1 23315873#2 23315873#3 -24463860#3 -24463860#2 -24463860#1"/>
    </vehicle>
    <vehicle id="27" depart="27.00">
        <route edges="-243591160#2 -243591160#1 -243591160#0 -4806606#1 -4806606#0 -111#4 -111#3 -111#2 -111#1 -111#0 -11005744#3 -11005744#2 -11005744#1 -11005744#0 -4214225#2 -4214225#1 -4214225#0 -327345180#11 -327345180#10 -327345180#9 -327345180#8 -327345180#7 -327345180#6 -327345180#5 -327345180#4 -327345180#3 -327345180#2 -327345180#1 -327345180#0 -134828657 -572386717 -112#1 -112#0 -572386718 -134828655 -572386719 -572386720 -152559511 -572386809 -313586841 -572386812 -553703844 -572363821 -572386813 -572386814#1 -572386814#0 -553703845#1 -553703845#0 -572363826 -229451071#3 -229451071#2 -229451071#1 -229451071#0 -229451070#1 -229451070#0 -551673053 -27854403 -572363840 -572363855#1 -572363855#0 -572363865#1 -572363865#0 -27854402#2 -27854402#1 -27854402#0 -553757156 -174342935#11 -174342935#10 -174342935#9 -174342935#8 -174342935#7 -174342935#6 -174342935#5 -174342935#4 -174342935#3 -174342935#2 -174342935#1 -174342935#0 -30714967#9 -30714967#8 -30714967#7 -30714967#6 -30714967#5 -30714967#4 -30714967#3 -30714967#2 -30714967#1 -30714967#0 -174342934#1 -174342934#0 -24644909#3 -4802056#4 4802056#4"/>
    </vehicle>
    <vehicle id="28" depart="28.00">
        <route edges="4607961#6 -4830004#1 -4830004#0 -314198233#17 -314198233#16 -314198233#15 -314198233#14 -314198233#13 -314198233#12 -314198233#11 -314198233#10 -314198233#9 -314198233#8 -314198233#7 -314198233#6 -314198233#5 -314198233#4 -314198233#3 -314198233#2 -314198233#1 -314198233#0 -561061263#4 -561061263#3 -561061263#2 -561061263#1 -561061263#0 -561061264#2 -561061264#1 -561061264#0 -218731038#1 -218731038#0 -2630148 -30986272#3 -30986272#2 -30986272#1 -30986272#0 -53862799#1 -53862799#0 -4578009#1 -4578009#0 53830346#0 53830346#1 -2630147#6"/>
    </vehicle>
    <vehicle id="29" depart="29.00">
        <route edges="31822598#2 31822598#3 31822598#4 31822598#5 31822598#6 31822598#7 31822598#8 31822598#9 110#0 110#1 110#2 110#3 110#4 110#5 110#6 110#7 110#8 110#9 110#10 110#11 110#12 110#13 110#14 110#15 110#16 110#17 110#18 110#19 110#20 110#21 110#22 110#23 110#24 110#25 4214225#0 4214225#1 4214225#2"/>
    </vehicle>
    <vehicle id="30" depart="30.00">
        <route edges="30482589#3 375424971 307093559 30482424#0 30482424#1 30483834#0 30483834#1 30484045 572363965 572112746 30496850#0 30496850#1 30496850#2 572363949 3237855#0 3237855#1 572363943#0 572363943#1 41886408 -113045854 42725936#0 42725936#1 249118608#0 249118608#1 4766027#0 4766027#1 309474891 30560725 309474888 23282870#0 23282870#1 313587139#0 313587139#1 313587139#2 572386728 313587138#0 313587138#1 572386727 572112882 572386705 24935271 237746449 54845723 572112887 572386712 134828655 572386718 112#0 112#1 572386717 134828657 327345180#0 327345180#1 327345180#2 327345180#3 327345180#4 327345180#5 327345180#6 327345180#7 327345180#8 28466997#0 28466997#1 28467071#0 28467071#1 104#4 -104#4"/>
    </vehicle>
    <vehicle id="31" depart="31.00">
        <route edges="-314198233#1 314198233#1 314198233#2 314198233#3 314198233#4 314198233#5 314198233#6 314198233#7 314198233#8 314198233#9 314198233#10 314198233#11 314198233#12 314198233#13 314198233#14 314198233#15 314198233#16 314198233#17 -4617273#4 -4617273#3 -4617273#2 -4617273#1 -4617273#0 -28935805#4 -28935805#3"/>
    </vehicle>
    <vehicle id="32" depart="32.00">
        <route edges="-4617273#4 4617273#4 44104542#0 44104542#1 44104542#2 295111#0 295111#1 238089729#0 238089729#1 238089729#2 238089727#0 238089727#1 553043594 572396536 572396532 558853106 4907518#0 4907518#1 4907518#2 553043579 553043593 572396528 553043591 56009960#0 56009960#1 553043590 572396586 56009961#0 56009961#1 572396580 572396593#0 572396593#1 572396590 572112814 572396598 572396621 572396602 572112810#0 572112810#1 572396616 572112820 261525082#0 261525082#1 261458622#0 261458622#1 572396664#0 572396664#1 572396660 30779238 30779237 572396648 4801629 261559644#0 261559644#1 54629506#0 5148922#0 5148925#0 5148925#1"/>
    </vehicle>
    <vehicle id="33" depart="33.00">
        <route edges="-53862799#1 -53862799#0 -4578009#1 -4578009#0 53830346#0 53830346#1 2643714#0 2643714#1 2643714#2 2643714#3 4372972#2"/>
    </vehicle>
    <vehicle id="34" depart="34.00">
        <route edges="318195088#0 318195088#1 318195088#2 318195088#3 318195088#4 318195088#5 101513941 572386704 24935264#0 24935264#1 572386726#0 572386726#1 572386725 -183279864 -572386730#1 -572386730#0 -28123396#4 -28123396#3 -28123396#2 -28123396#1 -28123396#0 -572386792 -558821156 -557715649 -553703849 553703849"/>
    </vehicle>
    <vehicle id="35" depart="35.00">
        <route edges="237425291#0 237425291#1 237425291#2 113045859#2 113045859#3 113045859#4 113045859#5 250470756#0 250470756#1 250470756#2 250470756#3 250470752#0 250470752#1 250470752#2 -123#12 -123#11 -123#10 -123#9 -123#8 -123#7 -123#6 -123#5 -123#4 -44104542#2 -44104542#1 -44104542#0 -4617273#4 -4617273#3 -222947642#3 -222947642#2 222947642#2"/>
    </vehicle>
    <vehicle id="36" depart="36.00">
        <route edges="25196653#2 -25196653#2 -25196653#1 -25196653#0 243591160#2 243591160#3 243591160#4 -4806604#1 -4806604#0 525953032#3 525953032#4 11005722#0 11005722#1 11005722#2 11005722#3 11005722#4 11005722#5 11005722#6 14344097 250470752#0 250470752#1 250470752#2 -123#12 -123#11 4607961#0 4607961#1 4607961#2 4607961#3 4607961#4 4607961#5 4607961#6 -4830004#1 -4830004#0"/>
    </vehicle>
    <vehicle id="37" depart="37.00">
        <route edges="4763429#1 -4763429#1 220068432#0 220068432#1 220068432#2 220068432#3 220068432#4 4766024#3 572396430 552670077#0 552670077#1 572396443#0 572396443#1 572396436 552670075#0 552670075#1 572396453 552670074#0 552670074#1 572396449 552670076 572396460#0 572396460#1 572396456#0 572396456#1 4741667#0 4741667#1 4741667#2 572396467 572396463 553043576#0 553043576#1 572396481#0 572396481#1 572396475#0 572396475#1 572396498 553043577#0 553043577#1 572396494 552670082#0 552670082#1 552670082#2 552670082#3 552670082#4 552670082#5 552670082#6 552670082#7 206398001 4761921#0 4761921#1 4756452#0 4756452#1 4756452#2 4756452#3 206263279 4761917#0 4761917#1 4761917#2 4761917#3 4761917#4 4761917#5 4761917#6 123#0 123#1 123#2 123#3 -44104542#2 -44104542#1 -44104542#0 -314198233#17 -314198233#16 -314198233#15 -314198233#14"/>
    </vehicle>
    <vehicle id="38" depart="38.00">
        <route edges="206092554 4208722 2534002 361260722#0 361260722#1 206092553 206092552 23282872#0 23282872#1 103060280 30559663 122 30559972 309474893 31822598#0 31822598#1 31822598#2 31822598#3 31822598#4 31822598#5 31822598#6 31822598#7 31822598#8 31822598#9 31822598#10 31822598#11 250470755#0 250470755#1 250470755#2 203673743#0 203673743#1 203673743#2 14344097 250470752#0 250470752#1 250470752#2 -123#12 -123#11 -123#10 -123#9 -123#8 -123#7 -123#6 -123#5 -123#4 -123#3 -123#2 -123#1 -123#0 14329418#0 14329418#1 14329418#2 14329418#3 14329418#4 14329418#5 14329418#6 14329418#7 14329418#8 14329418#9 4761919#0 4761919#1 4761919#2 4761919#3 4761919#4 4761919#5 4761919#6 56009958 552670084 261525086#0 261525086#1 261525086#2"/>
    </vehicle>
    <vehicle id="40" depart="40.00">
        <route edges="552670089#0 552670089#1 241368666 -238089729#1 -238089729#0 -295111#1 -295111#0 123#4 123#5 123#6 123#7 123#8 123#9 123#10 123#11 123#12 14344080#0 14344080#1 14344080#2 14344080#3 203673742 11005721#0 11005721#1 11005721#2 11005721#3 11005721#4 11005721#5 11005721#6 -525953032#4 -525953032#3 -525953032#2 -525953032#1 -4806610#13 -4806610#12 -4806610#11 -4806610#10 -4806610#9 -4806610#8 -4806610#7 -4806610#6 -4806610#5 -4806610#4 -4806610#3 -4806610#2 -4806610#1 -4806610#0 110#10 110#11 110#12 110#13 110#14 110#15 110#16 110#17 110#18 110#19 110#20 110#21 110#22 110#23 110#24 110#25 -327345180#11 -327345180#10 -327345180#9 -327345180#8 -327345180#7 -327345180#6 -327345180#5 -327345180#4 4696268#0"/>
    </vehicle>
    <vehicle id="41" depart="41.00">
        <route edges="35780298#6 -35780298#6 -35780298#5 -35780298#4 -35780298#3 -35780298#2 -35780298#1 -35780298#0 -572386703 24935264#0 24935264#1 572386726#0 572386726#1 572386725 313587140#0 313587140#1 237967676 4214227#0 4214227#1 4214227#2 31822598#0 31822598#1 31822598#2 31822598#3 31822598#4 31822598#5 31822598#6 31822598#7 31822598#8 31822598#9 31822598#10 31822598#11 250470755#0 250470755#1 250470755#2 203673743#0 203673743#1 203673743#2 496200351#0 496200351#1 496200350 250470753#0 250470753#1 261556338#0 261556338#1 572396680#0 572396680#1 572396677 30779264 572396636 572396633#0 572396633#1 163823107 -316223234#1 -316223234#0 4766022#0 4766022#1 4766022#2 4766022#3 4766022#4 4766022#5 4766022#6 4766022#7 -572396414#0 -572396419 -4766019#3 -4766019#2 -4766019#1 -4766019#0 -572396425 -4766024#3 -220068432#4 -163822557#1 -163822557#0 -52121184#1 -52121184#0 30779380#13 30779380#14"/>
    </vehicle>
    <vehicle id="42" depart="42.00">
        <route edges="250470753#1 261556338#0 261556338#1 572396680#0 572396680#1 572396677 30779264 572396636 572396633#0 572396633#1 163823107 -316223234#1 -316223234#0 4766022#0 4766022#1 4766022#2 4766022#3 4766022#4 4766022#5 4766022#6 4766022#7 -572396414#0 -572396419 -4766019#3 -4766019#2 -4766019#1 -4766019#0 -572396425 -4766024#3 -220068432#4 -220068432#3 -220068432#2 -220068432#1 -220068432#0 -4763429#0"/>
    </vehicle>
    <vehicle id="43" depart="43.00">
        <route edges="54629507#1 -54629507#1 -54629507#0 54629506#0 5148922#0 5148922#1 5148922#2 5148922#3 25196446#0"/>
    </vehicle>
    <vehicle id="44" depart="44.00">