<!---->
<configuration>
	<input>
		<net-file value="dresden.net.xml"/>
		<route-files value="dresden.rou.xml"/>
		<!--additional-files value="dresden.poly.xml"/-->
	</input>
	<time>
		<begin value="0"/>
		<end value="300"/>
		<!--step-length value="0.1"/-->
	</time>
</configuration>
