<?xml version="1.0" encoding="UTF-8"?>
<!-- generated on 2018-05-14 19:14:42.679071 by $Id$
  options: -n dresden.net.xml -r dresden.rou.xml -e 150 -l
-->
<routes xmlns:xsi="http://www.w3.org/2001/XMLSchema-instance" xsi:noNamespaceSchemaLocation="http://sumo.dlr.de/xsd/routes_file.xsd">
    <trip id="0" depart="0.00" from="-2643714#4" to="4802053#0"/>
    <trip id="1" depart="1.00" from="22989068#0" to="-4520518#0"/>
    <trip id="2" depart="2.00" from="4766024#0" to="54629506#0"/>
    <trip id="3" depart="3.00" from="-4604754#0" to="24560425#0"/>
    <trip id="4" depart="4.00" from="-110#18" to="28935805#4"/>
    <trip id="5" depart="5.00" from="4715836#1" to="-28236329"/>
    <trip id="6" depart="6.00" from="3128497#1" to="71002611#5"/>
    <trip id="7" depart="7.00" from="-32985665#1" to="38963799#1"/>
    <trip id="8" depart="8.00" from="-4766022#0" to="-30714967#9"/>
    <trip id="9" depart="9.00" from="11005721#1" to="121533741"/>
    <trip id="10" depart="10.00" from="-120#0" to="207546094#34"/>
    <trip id="11" depart="11.00" from="-141611506" to="-4715836#0"/>
    <trip id="12" depart="12.00" from="-4732225#3" to="123#1"/>
    <trip id="13" depart="13.00" from="216457072#3" to="3128497#4"/>
    <trip id="14" depart="14.00" from="2643714#3" to="-2643714#0"/>
    <trip id="15" depart="15.00" from="-25196653#5" to="-28935805#3"/>
    <trip id="16" depart="16.00" from="4588271#0" to="107465127#1"/>
    <trip id="17" depart="17.00" from="-30779380#14" to="-4372972#2"/>
    <trip id="18" depart="18.00" from="-4214226#6" to="28467007"/>
    <trip id="19" depart="19.00" from="-220202647#1" to="32507927#2"/>
    <trip id="20" depart="20.00" from="-4766024#2" to="-553703849"/>
    <trip id="21" depart="21.00" from="-207546094#6" to="250470753#1"/>
    <trip id="22" depart="22.00" from="35573875#1" to="107465127#1"/>
    <trip id="23" depart="23.00" from="-237425290#8" to="-28806214#1"/>
    <trip id="24" depart="24.00" from="4830004#2" to="-24518829#12"/>
    <trip id="25" depart="25.00" from="4607676#2" to="110#4"/>
    <trip id="26" depart="26.00" from="-30502271#9" to="-24463860#1"/>
    <trip id="27" depart="27.00" from="-243591160#2" to="4802056#4"/>
    <trip id="28" depart="28.00" from="4607961#6" to="-2630147#6"/>
    <trip id="29" depart="29.00" from="31822598#2" to="4214225#2"/>
    <trip id="30" depart="30.00" from="30482589#3" to="-104#4"/>
    <trip id="31" depart="31.00" from="-314198233#1" to="-28935805#3"/>
    <trip id="32" depart="32.00" from="-4617273#4" to="5148925#1"/>
    <trip id="33" depart="33.00" from="-53862799#1" to="4372972#2"/>
    <trip id="34" depart="34.00" from="318195088#0" to="553703849"/>
    <trip id="35" depart="35.00" from="237425291#0" to="222947642#2"/>
    <trip id="36" depart="36.00" from="25196653#2" to="-4830004#0"/>
    <trip id="37" depart="37.00" from="4763429#1" to="-314198233#14"/>
    <trip id="38" depart="38.00" from="206092554" to="261525086#2"/>
    <trip id="39" depart="39.00" from="-28236329" to="28467007"/>
    <trip id="40" depart="40.00" from="552670089#0" to="4696268#0"/>
    <trip id="41" depart="41.00" from="35780298#6" to="30779380#14"/>
    <trip id="42" depart="42.00" from="250470753#1" to="-4763429#0"/>
    <trip id="43" depart="43.00" from="54629507#1" to="25196446#0"/>
    <trip id="44" depart="44.00" from="-163822557#1" to="-11005744#2"/>
    <trip id="45" depart="45.00" from="42725936#0" to="138467550"/>
    <trip id="46" depart="46.00" from="4810436#1" to="-71002611#5"/>
    <trip id="47" depart="47.00" from="30502271#0" to="496200352"/>
    <trip id="48" depart="48.00" from="23282849#1" to="-4763429#1"/>
    <trip id="49" depart="49.00" from="28262819#3" to="-4830004#2"/>
    <trip id="50" depart="50.00" from="-314198233#12" to="-553043576#1"/>
    <trip id="51" depart="51.00" from="-111#0" to="-4588271#0"/>
    <trip id="52" depart="52.00" from="-31873848" to="28467007"/>
    <trip id="53" depart="53.00" from="2558296#2" to="4802053#5"/>
    <trip id="54" depart="54.00" from="4214226#2" to="-28467071#0"/>
    <trip id="55" depart="55.00" from="-4763429#1" to="-5148923#1"/>
    <trip id="56" depart="56.00" from="-4214226#5" to="30779380#7"/>
    <trip id="57" depart="57.00" from="4372972#2" to="255799728#40"/>
    <trip id="58" depart="58.00" from="104#6" to="5148886#1"/>
    <trip id="59" depart="59.00" from="216457072#3" to="5148890#1"/>
    <trip id="60" depart="60.00" from="-30779380#14" to="-243591160#1"/>
    <trip id="61" depart="61.00" from="32507927#0" to="232814000#1"/>
    <trip id="62" depart="62.00" from="-2630147#4" to="525953032#0"/>
    <trip id="63" depart="63.00" from="-4802056#0" to="552675116#0"/>
    <trip id="64" depart="64.00" from="5200533#2" to="71208863#2"/>
    <trip id="65" depart="65.00" from="33081111#5" to="-71002611#9"/>
    <trip id="66" depart="66.00" from="-5148890#2" to="71111599#1"/>
    <trip id="67" depart="67.00" from="4372972#2" to="-362258567#7"/>
    <trip id="68" depart="68.00" from="232814000#0" to="553043579"/>
    <trip id="69" depart="69.00" from="4806605#4" to="4802054#1"/>
    <trip id="70" depart="70.00" from="-28007604" to="-3128497#0"/>
    <trip id="71" depart="71.00" from="3194441#0" to="-557715642#0"/>
    <trip id="72" depart="72.00" from="4830075#27" to="-484174957#4"/>
    <trip id="73" depart="73.00" from="5200533#2" to="-2643714#1"/>
    <trip id="74" depart="74.00" from="113045845#4" to="-314198233#17"/>
    <trip id="75" depart="75.00" from="-255799728#42" to="-4715836#0"/>
    <trip id="76" depart="76.00" from="-4428563#0" to="-4715836#0"/>
    <trip id="77" depart="77.00" from="121#0" to="37566740#16"/>
    <trip id="78" depart="78.00" from="-2643714#4" to="24463860#3"/>
    <trip id="79" depart="79.00" from="-552675116#0" to="-4617273#3"/>
    <trip id="80" depart="80.00" from="-218731038#1" to="3237012#7"/>
    <trip id="81" depart="81.00" from="-45314924#4" to="-4802053#17"/>
    <trip id="82" depart="82.00" from="-28935805#5" to="37935912#4"/>
    <trip id="83" depart="83.00" from="28262819#3" to="-572396414#1"/>
    <trip id="84" depart="84.00" from="-255799728#41" to="3269845#1"/>
    <trip id="85" depart="85.00" from="38963799#1" to="-3128497#0"/>
    <trip id="86" depart="86.00" from="4720220" to="4802056#0"/>
    <trip id="87" depart="87.00" from="-123#6" to="-23625287#1"/>
    <trip id="88" depart="88.00" from="113045845#13" to="-4428564#1"/>
    <trip id="89" depart="89.00" from="207546094#44" to="-4732225#1"/>
    <trip id="90" depart="90.00" from="-207546094#34" to="4732225#0"/>
    <trip id="91" depart="91.00" from="5148922#5" to="207546094#1"/>
    <trip id="92" depart="92.00" from="-4766024#2" to="243591160#4"/>
    <trip id="93" depart="93.00" from="-5148885" to="-4372972#2"/>
    <trip id="94" depart="94.00" from="4802053#27" to="-207546094#41"/>
    <trip id="95" depart="95.00" from="-4372972#2" to="4428568"/>
    <trip id="96" depart="96.00" from="4802053#17" to="30502657#1"/>
    <trip id="97" depart="97.00" from="-24560425#0" to="-362258567#8"/>
    <trip id="98" depart="98.00" from="313587140#1" to="4761914#1"/>
    <trip id="99" depart="99.00" from="-2643714#0" to="110#5"/>
    <trip id="100" depart="100.00" from="-4578009#1" to="314198233#6"/>
    <trip id="101" depart="101.00" from="-37566740#0" to="-4806603#1"/>
    <trip id="102" depart="102.00" from="-553703844" to="-123#6"/>
    <trip id="103" depart="103.00" from="4761917#4" to="4428563#2"/>
    <trip id="104" depart="104.00" from="110#7" to="71002611#6"/>
    <trip id="105" depart="105.00" from="104#5" to="-220202647#1"/>
    <trip id="106" depart="106.00" from="-4214226#5" to="4425970#1"/>
    <trip id="107" depart="107.00" from="30484045" to="11005744#1"/>
    <trip id="108" depart="108.00" from="561061263#4" to="2643714#3"/>
    <trip id="109" depart="109.00" from="-232814000#4" to="-553757149"/>
    <trip id="110" depart="110.00" from="-2643721#14" to="220202647#1"/>
    <trip id="111" depart="111.00" from="-141611506" to="-24644909#1"/>
    <trip id="112" depart="112.00" from="282694718#3" to="553703848#1"/>
    <trip id="113" depart="113.00" from="-5148922#0" to="-222787070#3"/>
    <trip id="114" depart="114.00" from="4214226#2" to="-551244977"/>
    <trip id="115" depart="115.00" from="38963799#4" to="525953032#0"/>
    <trip id="116" depart="116.00" from="4801629" to="54629506#0"/>
    <trip id="117" depart="117.00" from="248601783#0" to="3194452#11"/>
    <trip id="118" depart="118.00" from="174342934#1" to="-2643721#11"/>
    <trip id="119" depart="119.00" from="163822557#1" to="4607673#8"/>
    <trip id="120" depart="120.00" from="-2643721#13" to="30482779"/>
    <trip id="121" depart="121.00" from="-54629507#0" to="30742278#2"/>
    <trip id="122" depart="122.00" from="4830003#2" to="-552672776"/>
    <trip id="123" depart="123.00" from="-32507927#0" to="2533983"/>
    <trip id="124" depart="124.00" from="261525086#2" to="2643714#4"/>
    <trip id="125" depart="125.00" from="-30779380#11" to="-222124643#1"/>
    <trip id="126" depart="126.00" from="572396586" to="30502657#2"/>
    <trip id="127" depart="127.00" from="327345180#9" to="-484174957#1"/>
    <trip id="128" depart="128.00" from="4761914#1" to="37566740#17"/>
    <trip id="129" depart="129.00" from="-24644909#1" to="-232814000#0"/>
    <trip id="130" depart="130.00" from="25196653#2" to="313586841"/>
    <trip id="131" depart="131.00" from="-4604753#0" to="314198233#13"/>
    <trip id="132" depart="132.00" from="-367883030#1" to="-24560425#4"/>
    <trip id="133" depart="133.00" from="-4802056#2" to="-385238570#0"/>
    <trip id="134" depart="134.00" from="27854402#1" to="261525086#2"/>
    <trip id="135" depart="135.00" from="-2643721#2" to="4496146#10"/>
    <trip id="136" depart="136.00" from="2630147#6" to="327345180#4"/>
    <trip id="137" depart="137.00" from="-37566739" to="-31873848"/>
    <trip id="138" depart="138.00" from="3237012#5" to="-28806214#1"/>
    <trip id="139" depart="139.00" from="572386807" to="4761919#5"/>
    <trip id="140" depart="140.00" from="-4806605#1" to="4372972#3"/>
    <trip id="141" depart="141.00" from="318195088#5" to="113045845#12"/>
    <trip id="142" depart="142.00" from="-367883030#2" to="-561061263#4"/>
    <trip id="143" depart="143.00" from="4428564#4" to="-255799728#38"/>
    <trip id="144" depart="144.00" from="27854402#1" to="255799728#42"/>
    <trip id="145" depart="145.00" from="32507927#0" to="-4428570#9"/>
    <trip id="146" depart="146.00" from="-3194550#7" to="3194452#10"/>
    <trip id="147" depart="147.00" from="249118608#0" to="-11005744#2"/>
    <trip id="148" depart="148.00" from="23625287#0" to="572396738"/>
    <trip id="149" depart="149.00" from="4761919#2" to="113045845#14"/>
</routes>
