<?xml version="1.0" encoding="UTF-8"?>

<!-- generated on Mi 16 Mai 2018 19:44:52 CEST by Netedit Version 0.32.0
<?xml version="1.0" encoding="UTF-8"?>

<configuration xmlns:xsi="http://www.w3.org/2001/XMLSchema-instance" xsi:noNamespaceSchemaLocation="http://sumo.dlr.de/xsd/netconvertConfiguration.xsd">

    <input>
        <sumo-net-file value="/home/lab/Desktop/SUMOmap/hangzhou/hangzhou.net.xml"/>
    </input>

    <output>
        <output-file value="/home/lab/Desktop/SUMOmap/hangzhou/hangzhou.net.xml"/>
    </output>

    <processing>
        <no-turnarounds value="true"/>
        <offset.disable-normalization value="true"/>
        <lefthand value="false"/>
        <junctions.corner-detail value="0"/>
        <rectangular-lane-cut value="false"/>
        <walkingareas value="false"/>
    </processing>

</configuration>
-->

<net version="0.27" xmlns:xsi="http://www.w3.org/2001/XMLSchema-instance" xsi:noNamespaceSchemaLocation="http://sumo.dlr.de/xsd/net_file.xsd">

    <location netOffset="-780913.59,-3325793.98" convBoundary="0.00,0.00,4864.60,4881.42" origBoundary="119.903106,30.030433,119.963956,30.114297" projParameter="+proj=utm +zone=50 +ellps=WGS84 +datum=WGS84 +units=m +no_defs"/>

    <type id="highway.bridleway" priority="1" numLanes="1" speed="2.78" allow="pedestrian" oneway="1" width="2.00"/>
    <type id="highway.bus_guideway" priority="1" numLanes="1" speed="8.33" allow="bus" oneway="1"/>
    <type id="highway.cycleway" priority="1" numLanes="1" speed="5.56" allow="bicycle" oneway="0" width="1.00"/>
    <type id="highway.footway" priority="1" numLanes="1" speed="2.78" allow="pedestrian" oneway="1" width="2.00"/>
    <type id="highway.ford" priority="1" numLanes="1" speed="2.78" allow="army" oneway="0"/>
    <type id="highway.living_street" priority="3" numLanes="1" speed="2.78" disallow="tram rail_urban rail rail_electric ship" oneway="0"/>
    <type id="highway.motorway" priority="13" numLanes="2" speed="44.44" allow="private emergency authority army vip passenger hov taxi bus coach delivery truck trailer motorcycle evehicle custom1 custom2" oneway="1"/>
    <type id="highway.motorway_link" priority="12" numLanes="1" speed="22.22" allow="private emergency authority army vip passenger hov taxi bus coach delivery truck trailer motorcycle evehicle custom1 custom2" oneway="1"/>
    <type id="highway.path" priority="1" numLanes="1" speed="2.78" allow="bicycle pedestrian" oneway="1" width="2.00"/>
    <type id="highway.pedestrian" priority="1" numLanes="1" speed="2.78" allow="pedestrian" oneway="1" width="2.00"/>
    <type id="highway.primary" priority="9" numLanes="2" speed="27.78" disallow="tram rail_urban rail rail_electric ship" oneway="0"/>
    <type id="highway.primary_link" priority="8" numLanes="1" speed="22.22" disallow="tram rail_urban rail rail_electric ship" oneway="0"/>
    <type id="highway.raceway" priority="14" numLanes="2" speed="83.33" allow="vip" oneway="0"/>
    <type id="highway.residential" priority="4" numLanes="1" speed="13.89" disallow="tram rail_urban rail rail_electric ship" oneway="0"/>
    <type id="highway.secondary" priority="7" numLanes="2" speed="27.78" disallow="tram rail_urban rail rail_electric ship" oneway="0"/>
    <type id="highway.secondary_link" priority="6" numLanes="1" speed="22.22" disallow="tram rail_urban rail rail_electric ship" oneway="0"/>
    <type id="highway.service" priority="2" numLanes="1" speed="5.56" allow="delivery bicycle pedestrian" oneway="0"/>
    <type id="highway.services" priority="1" numLanes="1" speed="8.33" disallow="tram rail_urban rail rail_electric ship" oneway="0"/>
    <type id="highway.stairs" priority="1" numLanes="1" speed="1.39" allow="pedestrian" oneway="1" width="2.00"/>
    <type id="highway.step" priority="1" numLanes="1" speed="1.39" allow="pedestrian" oneway="1" width="2.00"/>
    <type id="highway.steps" priority="1" numLanes="1" speed="1.39" allow="pedestrian" oneway="1" width="2.00"/>
    <type id="highway.tertiary" priority="6" numLanes="1" speed="22.22" disallow="tram rail_urban rail rail_electric ship" oneway="0"/>
    <type id="highway.tertiary_link" priority="5" numLanes="1" speed="22.22" disallow="tram rail_urban rail rail_electric ship" oneway="0"/>
    <type id="highway.track" priority="1" numLanes="1" speed="5.56" disallow="tram rail_urban rail rail_electric ship" oneway="0"/>
    <type id="highway.trunk" priority="11" numLanes="2" speed="27.78" disallow="tram rail_urban rail rail_electric bicycle pedestrian ship" oneway="0"/>
    <type id="highway.trunk_link" priority="10" numLanes="1" speed="22.22" disallow="tram rail_urban rail rail_electric bicycle pedestrian ship" oneway="0"/>
    <type id="highway.unclassified" priority="5" numLanes="1" speed="13.89" disallow="tram rail_urban rail rail_electric ship" oneway="0"/>
    <type id="highway.unsurfaced" priority="1" numLanes="1" speed="8.33" disallow="tram rail_urban rail rail_electric ship" oneway="0"/>
    <type id="railway.light_rail" priority="15" numLanes="1" speed="27.78" allow="rail_urban" oneway="1"/>
    <type id="railway.preserved" priority="15" numLanes="1" speed="27.78" allow="rail" oneway="1"/>
    <type id="railway.rail" priority="15" numLanes="1" speed="83.33" allow="rail rail_electric" oneway="1"/>
    <type id="railway.subway" priority="15" numLanes="1" speed="27.78" allow="rail_urban" oneway="1"/>
    <type id="railway.tram" priority="15" numLanes="1" speed="13.89" allow="tram" oneway="1"/>

    <edge id=":1318930095_0" function="internal">
        <lane id=":1318930095_0_0" index="0" disallow="tram rail_urban rail rail_electric ship" speed="18.05" length="5.04" shape="3812.67,2370.67 3811.28,2370.71 3810.25,2371.18 3809.58,2372.09 3809.27,2373.44"/>
    </edge>
    <edge id=":1318930095_1" function="internal">
        <lane id=":1318930095_1_0" index="0" disallow="tram rail_urban rail rail_electric ship" speed="22.22" length="9.55" shape="3812.67,2370.67 3803.17,2369.70"/>
    </edge>
    <edge id=":1318930095_2" function="internal">
        <lane id=":1318930095_2_0" index="0" disallow="tram rail_urban rail rail_electric ship" speed="22.22" length="2.41" shape="3812.67,2370.67 3811.54,2369.71 3811.23,2368.84"/>
    </edge>
    <edge id=":1318930095_9" function="internal">
        <lane id=":1318930095_9_0" index="0" speed="22.22" length="2.41" shape="3811.23,2368.84 3811.73,2368.07 3813.06,2367.40"/>
    </edge>
    <edge id=":1318930095_3" function="internal">
        <lane id=":1318930095_3_0" index="0" disallow="tram rail_urban rail rail_electric ship" speed="22.22" length="9.66" shape="3803.45,2366.41 3813.06,2367.40"/>
    </edge>
    <edge id=":1318930095_4" function="internal">
        <lane id=":1318930095_4_0" index="0" disallow="tram rail_urban rail rail_electric ship" speed="18.05" length="5.35" shape="3803.45,2366.41 3806.20,2367.06 3808.09,2368.44 3808.17,2368.60"/>
    </edge>
    <edge id=":1318930095_5" function="internal">
        <lane id=":1318930095_5_0" index="0" disallow="tram rail_urban rail rail_electric ship" speed="22.22" length="2.41" shape="3803.45,2366.41 3804.61,2367.34 3804.95,2368.20"/>
    </edge>
    <edge id=":1318930095_10" function="internal">
        <lane id=":1318930095_10_0" index="0" speed="18.05" length="5.06" shape="3808.17,2368.60 3809.11,2370.57 3809.27,2373.44"/>
    </edge>
    <edge id=":1318930095_11" function="internal">
        <lane id=":1318930095_11_0" index="0" speed="22.22" length="2.41" shape="3804.95,2368.20 3804.47,2368.98 3803.17,2369.70"/>
    </edge>
    <edge id=":1318930095_6" function="internal">
        <lane id=":1318930095_6_0" index="0" disallow="tram rail_urban rail rail_electric ship" speed="18.05" length="5.09" shape="3805.98,2373.16 3805.91,2371.75 3805.41,2370.70 3804.50,2370.01 3803.17,2369.70"/>
    </edge>
    <edge id=":1318930095_7" function="internal">
        <lane id=":1318930095_7_0" index="0" disallow="tram rail_urban rail rail_electric ship" speed="18.05" length="10.49" shape="3805.98,2373.16 3806.63,2370.35 3808.03,2368.45 3810.17,2367.47 3813.06,2367.40"/>
    </edge>
    <edge id=":1318930095_8" function="internal">
        <lane id=":1318930095_8_0" index="0" disallow="tram rail_urban rail rail_electric ship" speed="13.89" length="4.82" shape="3805.98,2373.16 3806.91,2372.00 3807.77,2371.66 3808.55,2372.14 3809.27,2373.44"/>
    </edge>
    <edge id=":1318930474_0" function="internal">
        <lane id=":1318930474_0_0" index="0" disallow="tram rail_urban rail rail_electric ship" speed="27.78" length="25.69" shape="3538.28,3470.64 3533.89,3475.69 3531.36,3481.05 3529.91,3487.00 3528.75,3493.85"/>
    </edge>
    <edge id=":1318930474_1" function="internal">
        <lane id=":1318930474_1_0" index="0" disallow="tram rail_urban rail rail_electric ship" speed="27.78" length="29.89" shape="3538.28,3470.64 3515.50,3490.10"/>
        <lane id=":1318930474_1_1" index="1" disallow="tram rail_urban rail rail_electric ship" speed="27.78" length="29.89" shape="3536.08,3468.17 3513.41,3487.55"/>
    </edge>
    <edge id=":1318930474_3" function="internal">
        <lane id=":1318930474_3_0" index="0" disallow="tram rail_urban rail rail_electric ship" speed="27.78" length="16.22" shape="3536.08,3468.17 3531.17,3471.94 3527.80,3473.09 3525.98,3471.61 3525.71,3467.50"/>
    </edge>
    <edge id=":1318930474_4" function="internal">
        <lane id=":1318930474_4_0" index="0" disallow="tram rail_urban rail rail_electric ship" speed="27.78" length="25.85" shape="3532.28,3468.10 3528.75,3493.85"/>
        <lane id=":1318930474_4_1" index="1" disallow="tram rail_urban rail rail_electric ship" speed="27.78" length="25.85" shape="3529.00,3467.80 3525.50,3493.28"/>
    </edge>
    <edge id=":1318930474_6" function="internal">
        <lane id=":1318930474_6_0" index="0" disallow="tram rail_urban rail rail_electric ship" speed="27.78" length="25.63" shape="3529.00,3467.80 3527.76,3471.87 3524.75,3476.52 3519.97,3481.75 3513.41,3487.55"/>
    </edge>
    <edge id=":1318930474_7" function="internal">
        <lane id=":1318930474_7_0" index="0" disallow="tram rail_urban rail rail_electric ship" speed="27.78" length="4.82" shape="3529.00,3467.80 3528.06,3468.96 3527.20,3469.29 3526.42,3468.80 3525.71,3467.50"/>
    </edge>
    <edge id=":1318930474_8" function="internal">
        <lane id=":1318930474_8_0" index="0" disallow="tram rail_urban rail rail_electric ship" speed="27.78" length="6.99" shape="3519.00,3492.14 3519.15,3489.87 3518.62,3488.78 3517.40,3488.85 3515.50,3490.10"/>
    </edge>
    <edge id=":1318930474_9" function="internal">
        <lane id=":1318930474_9_0" index="0" disallow="tram rail_urban rail rail_electric ship" speed="27.78" length="17.68" shape="3522.25,3492.71 3522.64,3486.97 3521.30,3484.19 3518.22,3484.39 3513.41,3487.55"/>
    </edge>
    <edge id=":1318930474_10" function="internal">
        <lane id=":1318930474_10_0" index="0" disallow="tram rail_urban rail rail_electric ship" speed="27.78" length="25.57" shape="3522.25,3492.71 3522.87,3485.97 3522.63,3479.99 3522.25,3473.99 3522.42,3467.19"/>
    </edge>
    <edge id=":1318930474_11" function="internal">
        <lane id=":1318930474_11_0" index="0" disallow="tram rail_urban rail rail_electric ship" speed="27.78" length="2.41" shape="3522.25,3492.71 3523.27,3491.63 3524.16,3491.37"/>
    </edge>
    <edge id=":1318930474_12" function="internal">
        <lane id=":1318930474_12_0" index="0" speed="27.78" length="2.41" shape="3524.16,3491.37 3524.90,3491.92 3525.50,3493.28"/>
    </edge>
    <edge id=":1318931074_0" function="internal">
        <lane id=":1318931074_0_0" index="0" disallow="tram rail_urban rail rail_electric ship" speed="27.78" length="4.82" shape="3158.19,4882.02 3156.97,4882.87 3156.05,4882.96 3155.43,4882.27 3155.11,4880.82"/>
    </edge>
    <edge id=":1318931089_0" function="internal">
        <lane id=":1318931089_0_0" index="0" disallow="tram rail_urban rail rail_electric ship" speed="22.22" length="4.82" shape="4276.45,2366.28 4277.84,2366.82 4278.42,2367.53 4278.20,2368.43 4277.17,2369.50"/>
    </edge>
    <edge id=":1318931132_0" function="internal">
        <lane id=":1318931132_0_0" index="0" disallow="tram rail_urban rail rail_electric ship" speed="27.78" length="21.54" shape="3516.71,3464.05 3521.67,3460.45 3525.18,3457.71 3528.35,3454.62 3532.28,3449.95"/>
        <lane id=":1318931132_0_1" index="1" disallow="tram rail_urban rail rail_electric ship" speed="27.78" length="21.54" shape="3518.67,3466.71 3523.72,3463.02 3527.45,3460.07 3530.83,3456.77 3534.86,3452.01"/>
    </edge>
    <edge id=":1318931132_2" function="internal">
        <lane id=":1318931132_2_0" index="0" disallow="tram rail_urban rail rail_electric ship" speed="27.78" length="19.63" shape="3518.67,3466.71 3525.05,3462.73 3529.45,3461.60 3531.86,3463.32 3532.30,3467.90"/>
    </edge>
    <edge id=":1318931132_3" function="internal">
        <lane id=":1318931132_3_0" index="0" disallow="tram rail_urban rail rail_electric ship" speed="27.78" length="14.89" shape="3518.67,3466.71 3523.51,3463.69 3526.85,3462.83 3528.68,3464.13 3529.01,3467.60"/>
    </edge>
    <edge id=":1318931132_4" function="internal">
        <lane id=":1318931132_4_0" index="0" disallow="tram rail_urban rail rail_electric ship" speed="27.78" length="19.27" shape="3522.44,3466.99 3523.50,3461.28 3525.40,3457.68 3528.28,3454.48 3532.28,3449.95"/>
        <lane id=":1318931132_4_1" index="1" disallow="tram rail_urban rail rail_electric ship" speed="27.78" length="19.27" shape="3525.73,3467.30 3526.72,3462.15 3528.52,3458.94 3531.21,3456.09 3534.86,3452.01"/>
    </edge>
    <edge id=":1318931132_6" function="internal">
        <lane id=":1318931132_6_0" index="0" disallow="tram rail_urban rail rail_electric ship" speed="27.78" length="4.82" shape="3525.73,3467.30 3526.66,3466.14 3527.52,3465.81 3528.31,3466.29 3529.01,3467.60"/>
    </edge>
    <edge id=":1318931205_0" function="internal">
        <lane id=":1318931205_0_0" index="0" disallow="tram rail_urban rail rail_electric ship" speed="13.89" length="9.84" shape="3957.83,3057.52 3956.84,3054.78 3956.07,3052.93 3955.13,3051.17 3953.65,3048.65"/>
    </edge>
    <edge id=":1318931205_1" function="internal">
        <lane id=":1318931205_1_0" index="0" disallow="tram rail_urban rail rail_electric ship" speed="20.84" length="7.95" shape="3957.83,3057.52 3957.73,3056.05 3958.51,3054.67 3960.17,3053.39 3962.71,3052.21"/>
    </edge>
    <edge id=":1318931205_2" function="internal">
        <lane id=":1318931205_2_0" index="0" disallow="tram rail_urban rail rail_electric ship" speed="13.89" length="4.82" shape="3957.83,3057.52 3958.20,3056.08 3958.84,3055.42 3959.75,3055.53 3960.94,3056.42"/>
    </edge>
    <edge id=":1318931205_3" function="internal">
        <lane id=":1318931205_3_0" index="0" disallow="tram rail_urban rail rail_electric ship" speed="20.84" length="6.04" shape="3956.49,3046.97 3957.55,3048.35 3958.74,3049.17 3960.07,3049.43 3961.53,3049.13"/>
    </edge>
    <edge id=":1318931205_4" function="internal">
        <lane id=":1318931205_4_0" index="0" disallow="tram rail_urban rail rail_electric ship" speed="13.89" length="10.48" shape="3956.49,3046.97 3958.03,3049.60 3959.05,3051.54 3959.90,3053.56 3960.94,3056.42"/>
    </edge>
    <edge id=":1318931205_5" function="internal">
        <lane id=":1318931205_5_0" index="0" disallow="tram rail_urban rail rail_electric ship" speed="13.89" length="4.82" shape="3956.49,3046.97 3956.41,3048.45 3955.91,3049.23 3954.99,3049.29 3953.65,3048.65"/>
    </edge>
    <edge id=":1318931205_6" function="internal">
        <lane id=":1318931205_6_0" index="0" disallow="tram rail_urban rail rail_electric ship" speed="20.84" length="5.18" shape="3952.26,3052.81 3953.51,3052.07 3954.16,3051.13 3954.21,3049.99 3953.65,3048.65"/>
    </edge>
    <edge id=":1318931205_7" function="internal">
        <lane id=":1318931205_7_0" index="0" disallow="tram rail_urban rail rail_electric ship" speed="27.78" length="9.93" shape="3952.26,3052.81 3961.53,3049.13"/>
        <lane id=":1318931205_7_1" index="1" disallow="tram rail_urban rail rail_electric ship" speed="27.78" length="9.93" shape="3953.52,3055.86 3962.71,3052.21"/>
    </edge>
    <edge id=":1318931205_9" function="internal">
        <lane id=":1318931205_9_0" index="0" disallow="tram rail_urban rail rail_electric ship" speed="20.84" length="8.29" shape="3953.52,3055.86 3956.35,3054.92 3958.53,3054.70 3960.06,3055.20 3960.94,3056.42"/>
    </edge>
    <edge id=":1330480897_0" function="internal">
        <lane id=":1330480897_0_0" index="0" disallow="tram rail_urban rail rail_electric ship" speed="22.22" length="0.31" shape="3432.54,2311.90 3432.24,2311.81"/>
    </edge>
    <edge id=":1330480897_1" function="internal">
        <lane id=":1330480897_1_0" index="0" disallow="tram rail_urban rail rail_electric ship" speed="22.22" length="2.41" shape="3432.54,2311.90 3431.59,2310.76 3431.43,2309.85"/>
    </edge>
    <edge id=":1330480897_4" function="internal">
        <lane id=":1330480897_4_0" index="0" speed="22.22" length="2.41" shape="3431.43,2309.85 3432.06,2309.18 3433.49,2308.74"/>
    </edge>
    <edge id=":1330480897_2" function="internal">
        <lane id=":1330480897_2_0" index="0" disallow="tram rail_urban rail rail_electric ship" speed="22.22" length="0.29" shape="3433.21,2308.66 3433.49,2308.74"/>
    </edge>
    <edge id=":1330480897_3" function="internal">
        <lane id=":1330480897_3_0" index="0" disallow="tram rail_urban rail rail_electric ship" speed="22.22" length="2.41" shape="3433.21,2308.66 3434.15,2309.81 3434.31,2310.72"/>
    </edge>
    <edge id=":1330480897_5" function="internal">
        <lane id=":1330480897_5_0" index="0" speed="22.22" length="2.41" shape="3434.31,2310.72 3433.67,2311.39 3432.24,2311.81"/>
    </edge>
    <edge id=":1330481000_0" function="internal">
        <lane id=":1330481000_0_0" index="0" disallow="tram rail_urban rail rail_electric ship" speed="27.78" length="4.82" shape="1593.25,2252.10 1592.96,2250.64 1593.26,2249.77 1594.14,2249.48 1595.59,2249.78"/>
    </edge>
    <edge id=":1330481033_0" function="internal">
        <lane id=":1330481033_0_0" index="0" disallow="tram rail_urban rail rail_electric ship" speed="22.22" length="5.25" shape="3485.46,2327.80 3480.43,2326.29"/>
    </edge>
    <edge id=":1330481033_1" function="internal">
        <lane id=":1330481033_1_0" index="0" disallow="tram rail_urban rail rail_electric ship" speed="22.22" length="2.41" shape="3485.46,2327.80 3484.51,2326.66 3484.35,2325.75"/>
    </edge>
    <edge id=":1330481033_4" function="internal">
        <lane id=":1330481033_4_0" index="0" speed="22.22" length="2.41" shape="3484.35,2325.75 3484.98,2325.07 3486.40,2324.64"/>
    </edge>
    <edge id=":1330481033_2" function="internal">
        <lane id=":1330481033_2_0" index="0" disallow="tram rail_urban rail rail_electric ship" speed="22.22" length="5.24" shape="3481.38,2323.13 3486.40,2324.64"/>
    </edge>
    <edge id=":1330481033_3" function="internal">
        <lane id=":1330481033_3_0" index="0" disallow="tram rail_urban rail rail_electric ship" speed="22.22" length="2.41" shape="3481.38,2323.13 3482.33,2324.28 3482.49,2325.19"/>
    </edge>
    <edge id=":1330481033_5" function="internal">
        <lane id=":1330481033_5_0" index="0" speed="22.22" length="2.41" shape="3482.49,2325.19 3481.85,2325.86 3480.43,2326.29"/>
    </edge>
    <edge id=":1330481037_0" function="internal">
        <lane id=":1330481037_0_0" index="0" disallow="tram rail_urban rail rail_electric ship" speed="22.22" length="4.82" shape="1605.64,2222.67 1604.35,2221.92 1603.88,2221.13 1604.24,2220.28 1605.42,2219.37"/>
    </edge>
    <edge id=":1330481223_0" function="internal">
        <lane id=":1330481223_0_0" index="0" disallow="tram rail_urban rail rail_electric ship" speed="22.22" length="0.10" shape="3395.66,2300.61 3395.74,2300.63"/>
    </edge>
    <edge id=":1330481223_1" function="internal">
        <lane id=":1330481223_1_0" index="0" disallow="tram rail_urban rail rail_electric ship" speed="22.22" length="2.41" shape="3395.66,2300.61 3394.72,2299.46 3394.56,2298.55"/>
    </edge>
    <edge id=":1330481223_4" function="internal">
        <lane id=":1330481223_4_0" index="0" speed="22.22" length="2.41" shape="3394.56,2298.55 3395.20,2297.88 3396.62,2297.45"/>
    </edge>
    <edge id=":1330481223_2" function="internal">
        <lane id=":1330481223_2_0" index="0" disallow="tram rail_urban rail rail_electric ship" speed="22.22" length="0.10" shape="3396.54,2297.43 3396.62,2297.45"/>
    </edge>
    <edge id=":1330481223_3" function="internal">
        <lane id=":1330481223_3_0" index="0" disallow="tram rail_urban rail rail_electric ship" speed="22.22" length="2.41" shape="3396.54,2297.43 3397.54,2298.53 3397.74,2299.43"/>
    </edge>
    <edge id=":1330481223_5" function="internal">
        <lane id=":1330481223_5_0" index="0" speed="22.22" length="2.41" shape="3397.74,2299.43 3397.14,2300.13 3395.74,2300.63"/>
    </edge>
    <edge id=":1330586323_0" function="internal">
        <lane id=":1330586323_0_0" index="0" disallow="tram rail_urban rail rail_electric ship" speed="13.89" length="4.82" shape="-0.08,2704.05 -1.28,2703.16 -1.65,2702.32 -1.20,2701.52 0.08,2700.75"/>
    </edge>
    <edge id=":1333625439_0" function="internal">
        <lane id=":1333625439_0_0" index="0" disallow="tram rail_urban rail rail_electric ship" speed="22.22" length="5.06" shape="2557.11,2585.69 2555.71,2585.85 2554.70,2586.40 2554.07,2587.35 2553.83,2588.69"/>
    </edge>
    <edge id=":1333625439_1" function="internal">
        <lane id=":1333625439_1_0" index="0" disallow="tram rail_urban rail rail_electric ship" speed="22.22" length="9.60" shape="2557.11,2585.69 2547.51,2585.33"/>
    </edge>
    <edge id=":1333625439_2" function="internal">
        <lane id=":1333625439_2_0" index="0" disallow="tram rail_urban rail rail_electric ship" speed="22.22" length="10.42" shape="2557.11,2585.69 2554.29,2585.21 2552.31,2583.94 2551.19,2581.87 2550.92,2579.02"/>
    </edge>
    <edge id=":1333625439_3" function="internal">
        <lane id=":1333625439_3_0" index="0" disallow="tram rail_urban rail rail_electric ship" speed="22.22" length="4.82" shape="2557.11,2585.69 2555.89,2584.83 2555.50,2584.00 2555.94,2583.18 2557.20,2582.39"/>
    </edge>
    <edge id=":1333625439_4" function="internal">
        <lane id=":1333625439_4_0" index="0" disallow="tram rail_urban rail rail_electric ship" speed="22.22" length="5.02" shape="2554.21,2579.18 2554.34,2580.55 2554.89,2581.55 2555.84,2582.16 2557.20,2582.39"/>
    </edge>
    <edge id=":1333625439_5" function="internal">
        <lane id=":1333625439_5_0" index="0" disallow="tram rail_urban rail rail_electric ship" speed="22.22" length="9.52" shape="2554.21,2579.18 2553.83,2588.69"/>
    </edge>
    <edge id=":1333625439_6" function="internal">
        <lane id=":1333625439_6_0" index="0" disallow="tram rail_urban rail rail_electric ship" speed="22.22" length="5.21" shape="2554.21,2579.18 2553.68,2581.98 2552.39,2583.95"/>
    </edge>
    <edge id=":1333625439_7" function="internal">
        <lane id=":1333625439_7_0" index="0" disallow="tram rail_urban rail rail_electric ship" speed="22.22" length="2.41" shape="2554.21,2579.18 2553.33,2580.38 2552.49,2580.75"/>
    </edge>
    <edge id=":1333625439_16" function="internal">
        <lane id=":1333625439_16_0" index="0" speed="22.22" length="5.17" shape="2552.39,2583.95 2550.33,2585.06 2547.51,2585.33"/>
    </edge>
    <edge id=":1333625439_17" function="internal">
        <lane id=":1333625439_17_0" index="0" speed="22.22" length="2.41" shape="2552.49,2580.75 2551.68,2580.30 2550.92,2579.02"/>
    </edge>
    <edge id=":1333625439_8" function="internal">
        <lane id=":1333625439_8_0" index="0" disallow="tram rail_urban rail rail_electric ship" speed="22.22" length="5.05" shape="2547.67,2582.03 2549.03,2581.90 2550.03,2581.36 2550.66,2580.40 2550.92,2579.02"/>
    </edge>
    <edge id=":1333625439_9" function="internal">
        <lane id=":1333625439_9_0" index="0" disallow="tram rail_urban rail rail_electric ship" speed="22.22" length="9.53" shape="2547.67,2582.03 2557.20,2582.39"/>
    </edge>
    <edge id=":1333625439_10" function="internal">
        <lane id=":1333625439_10_0" index="0" disallow="tram rail_urban rail rail_electric ship" speed="22.22" length="10.31" shape="2547.67,2582.03 2550.45,2582.56 2552.40,2583.85 2553.53,2585.89 2553.83,2588.69"/>
    </edge>
    <edge id=":1333625439_11" function="internal">
        <lane id=":1333625439_11_0" index="0" disallow="tram rail_urban rail rail_electric ship" speed="22.22" length="4.82" shape="2547.67,2582.03 2548.87,2582.92 2549.24,2583.76 2548.79,2584.57 2547.51,2585.33"/>
    </edge>
    <edge id=":1333625439_12" function="internal">
        <lane id=":1333625439_12_0" index="0" disallow="tram rail_urban rail rail_electric ship" speed="22.22" length="5.05" shape="2550.53,2588.58 2550.38,2587.22 2549.83,2586.22 2548.87,2585.59 2547.51,2585.33"/>
    </edge>
    <edge id=":1333625439_13" function="internal">
        <lane id=":1333625439_13_0" index="0" disallow="tram rail_urban rail rail_electric ship" speed="22.22" length="9.56" shape="2550.53,2588.58 2550.92,2579.02"/>
    </edge>
    <edge id=":1333625439_14" function="internal">
        <lane id=":1333625439_14_0" index="0" disallow="tram rail_urban rail rail_electric ship" speed="22.22" length="5.29" shape="2550.53,2588.58 2551.03,2585.81 2552.31,2583.85 2552.43,2583.78"/>
    </edge>
    <edge id=":1333625439_15" function="internal">
        <lane id=":1333625439_15_0" index="0" disallow="tram rail_urban rail rail_electric ship" speed="22.22" length="2.41" shape="2550.53,2588.58 2551.40,2587.37 2552.24,2586.99"/>
    </edge>
    <edge id=":1333625439_18" function="internal">
        <lane id=":1333625439_18_0" index="0" speed="22.22" length="5.07" shape="2552.43,2583.78 2554.36,2582.71 2557.20,2582.39"/>
    </edge>
    <edge id=":1333625439_19" function="internal">
        <lane id=":1333625439_19_0" index="0" speed="22.22" length="2.41" shape="2552.24,2586.99 2553.05,2587.43 2553.83,2588.69"/>
    </edge>
    <edge id=":1333625444_0" function="internal">
        <lane id=":1333625444_0_0" index="0" disallow="tram rail_urban rail rail_electric ship" speed="22.22" length="5.12" shape="2571.42,2277.78 2570.03,2277.94 2569.02,2278.51 2568.39,2279.48 2568.13,2280.86"/>
    </edge>
    <edge id=":1333625444_1" function="internal">
        <lane id=":1333625444_1_0" index="0" disallow="tram rail_urban rail rail_electric ship" speed="22.22" length="9.57" shape="2571.42,2277.78 2561.86,2277.48"/>
    </edge>
    <edge id=":1333625444_2" function="internal">
        <lane id=":1333625444_2_0" index="0" disallow="tram rail_urban rail rail_electric ship" speed="22.22" length="5.31" shape="2571.42,2277.78 2568.62,2277.30 2566.66,2276.04 2566.59,2275.93"/>
    </edge>
    <edge id=":1333625444_3" function="internal">
        <lane id=":1333625444_3_0" index="0" disallow="tram rail_urban rail rail_electric ship" speed="22.22" length="2.41" shape="2571.42,2277.78 2570.21,2276.92 2569.82,2276.08"/>
    </edge>
    <edge id=":1333625444_16" function="internal">
        <lane id=":1333625444_16_0" index="0" speed="22.22" length="5.04" shape="2566.59,2275.93 2565.52,2274.00 2565.21,2271.18"/>
    </edge>
    <edge id=":1333625444_17" function="internal">
        <lane id=":1333625444_17_0" index="0" speed="22.22" length="2.41" shape="2569.82,2276.08 2570.25,2275.27 2571.51,2274.48"/>
    </edge>
    <edge id=":1333625444_4" function="internal">
        <lane id=":1333625444_4_0" index="0" disallow="tram rail_urban rail rail_electric ship" speed="22.22" length="5.01" shape="2568.50,2271.29 2568.65,2272.65 2569.21,2273.64 2570.16,2274.25 2571.51,2274.48"/>
    </edge>
    <edge id=":1333625444_5" function="internal">
        <lane id=":1333625444_5_0" index="0" disallow="tram rail_urban rail rail_electric ship" speed="22.22" length="9.58" shape="2568.50,2271.29 2568.13,2280.86"/>
    </edge>
    <edge id=":1333625444_6" function="internal">
        <lane id=":1333625444_6_0" index="0" disallow="tram rail_urban rail rail_electric ship" speed="22.22" length="10.36" shape="2568.50,2271.29 2568.01,2274.08 2566.74,2276.05 2564.69,2277.18 2561.86,2277.48"/>
    </edge>
    <edge id=":1333625444_7" function="internal">
        <lane id=":1333625444_7_0" index="0" disallow="tram rail_urban rail rail_electric ship" speed="22.22" length="4.82" shape="2568.50,2271.29 2567.64,2272.50 2566.80,2272.88 2565.99,2272.44 2565.21,2271.18"/>
    </edge>
    <edge id=":1333625444_8" function="internal">
        <lane id=":1333625444_8_0" index="0" disallow="tram rail_urban rail rail_electric ship" speed="22.22" length="5.03" shape="2561.98,2274.18 2563.35,2274.03 2564.35,2273.49 2564.97,2272.53 2565.21,2271.18"/>
    </edge>
    <edge id=":1333625444_9" function="internal">
        <lane id=":1333625444_9_0" index="0" disallow="tram rail_urban rail rail_electric ship" speed="22.22" length="9.54" shape="2561.98,2274.18 2571.51,2274.48"/>
    </edge>
    <edge id=":1333625444_10" function="internal">
        <lane id=":1333625444_10_0" index="0" disallow="tram rail_urban rail rail_electric ship" speed="22.22" length="5.19" shape="2561.98,2274.18 2564.78,2274.68 2566.74,2275.96"/>
    </edge>
    <edge id=":1333625444_11" function="internal">
        <lane id=":1333625444_11_0" index="0" disallow="tram rail_urban rail rail_electric ship" speed="22.22" length="2.41" shape="2561.98,2274.18 2563.18,2275.05 2563.57,2275.89"/>
    </edge>
    <edge id=":1333625444_18" function="internal">
        <lane id=":1333625444_18_0" index="0" speed="22.22" length="5.19" shape="2566.74,2275.96 2567.85,2278.02 2568.13,2280.86"/>
    </edge>
    <edge id=":1333625444_19" function="internal">