<?xml version="1.0" encoding="UTF-8"?>

<!-- generated on Wed May 16 19:18:26 2018 by SUMO duarouter Version 0.32.0
<?xml version="1.0" encoding="UTF-8"?>

<configuration xmlns:xsi="http://www.w3.org/2001/XMLSchema-instance" xsi:noNamespaceSchemaLocation="http://sumo.dlr.de/xsd/duarouterConfiguration.xsd">

    <input>
        <net-file value="hangzhou.net.xml"/>
        <route-files value="trips.trips.xml"/>
    </input>

    <output>
        <output-file value="hangzhou.rou.xml"/>
        <alternatives-output value="hangzhou.rou.alt.xml"/>
    </output>

    <processing>
        <ignore-errors value="true"/>
    </processing>

    <time>
        <begin value="0"/>
        <end value="200.0"/>
    </time>

    <report>
        <no-warnings value="true"/>
        <no-step-log value="true"/>
    </report>

</configuration>
-->

<routes xmlns:xsi="http://www.w3.org/2001/XMLSchema-instance" xsi:noNamespaceSchemaLocation="http://sumo.dlr.de/xsd/routes_file.xsd">
    <vehicle id="0" depart="0.00">
        <route edges="-582439650#5 -582439650#4 -582439650#3 -582439650#2 -582439650#1 -582439650#0 -118600270#2 582425081#4 -582425081#4"/>
    </vehicle>
    <vehicle id="1" depart="1.00">
        <route edges="437731789 437658339#5 -118979734#6 118600274#0 118600274#1 118600274#2 118600269 118600270#0 118600270#1 118600270#2 -582101891#5 -367437920#1 437731685#0"/>
    </vehicle>
    <vehicle id="2" depart="2.00">
        <route edges="582425081#2 582425081#3 118600270#2 -582101891#5 -582101891#4 -582101891#3 -582101891#2 -118979280#2 437731685#1 -437731887#3 -437731887#2 -437731887#1 437732067#3"/>
    </vehicle>
    <vehicle id="3" depart="3.00">
        <route edges="224881195#4 62298947#2 62298947#3 437658420#0 437658420#1 118979620#0 118979620#1 118979620#2 118979620#3 -582418548#0 -118979631 -118979609 -118979616 -118979635 -398820552#1 -398820552#0 -582425081#7 -582425081#6 437731772 437731873#2 -437731873#2"/>
    </vehicle>
    <vehicle id="4" depart="4.00">
        <route edges="-437731819#1 -437731819#0 -437731856#2 -437731743 -582439650#0 -118600270#2 -118600270#1 -118600270#0 -118600269 -118600274#2 -118600274#1 -118600274#0 -582437965#4 -582437965#3 -582437965#2 437658462#0 582437967#2 582437967#3"/>
    </vehicle>
    <vehicle id="5" depart="5.00">
        <route edges="-367437906#1 367437906#1 -582439650#3 -582439650#2 -582439650#1 -582439650#0 -582101891#5 -582101891#4 -582101891#3 -582101891#2 582101893#0 582101893#1 437658322 398820552#1 118979635 118979616 118979609 118979631 582418548#0 582418548#1 582418548#2 582418548#3 582418548#4 -224881195#0"/>
    </vehicle>
    <vehicle id="6" depart="6.00">
        <route edges="-437658439 -582418548#5 -582418548#4 -582418548#3 -582418548#2 -582418548#1 -582418548#0 -118979631 -118979609 -118979616 -118979635 -398820552#1 -437658322 -582101893#1 -582101893#0 -118979280#2 -118979280#1"/>
    </vehicle>
    <vehicle id="7" depart="7.00">
        <route edges="-582140790 -582439650#4 -582439650#3 -582439650#2 -582439650#1 437731743 -437731743"/>
    </vehicle>
    <vehicle id="8" depart="8.00">
        <route edges="-437731742 -437731855#0 582439650#2 437731749"/>
    </vehicle>
    <vehicle id="9" depart="9.00">
        <route edges="-582418548#3 -582418548#2 -582418548#1 582418550#0 582418550#1 582418550#2 582418550#3 582418550#4 582418550#5 4557622 437658452#0 437658452#1 437658452#2 -437658425#0 -437658366 437658353 -437658339#3 437658339#3"/>
    </vehicle>
    <vehicle id="10" depart="10.00">
        <route edges="-437731794 -582101890#0 -118274014 118274005 118274017#0 118274017#1 118274017#2 118274017#3 582101892#0 582101892#1 -437731815"/>
    </vehicle>
    <vehicle id="11" depart="11.00">
        <route edges="-118979732 118979732 118979734#0 118979734#1 118979734#2 118979734#3 118979734#4 118979734#5 118979734#6 118979734#7 437658404#0 437658404#1 118979733 118979731#0 118979731#1 118979731#2 582418552 4557622 437658452#0 437658452#1 -437658435#1 -437658435#0"/>
    </vehicle>
    <vehicle id="12" depart="12.00">
        <route edges="-437658321#3 437658460#1 437658460#2 437658460#3 437658426#0 437658426#1"/>
    </vehicle>
    <vehicle id="13" depart="13.00">
        <route edges="-118274005 118274014 582101891#0 582101891#1 582101891#2 582101891#3 582101891#4 582101891#5 -118600270#2 -118600270#1 -118600270#0 -118600269 -118600274#2 -118600274#1 -118600274#0 -118979734#5 -118979734#4 -118979734#3"/>
    </vehicle>
    <vehicle id="14" depart="14.00">
        <route edges="-437731810#0 -582101892#2 -582101892#1 -582101892#0 -118274017#3 -118274017#2 -118274017#1 -118274017#0 -118274005 118274014 582101891#0 582101891#1 582101893#0 437658400"/>
    </vehicle>
    <vehicle id="15" depart="15.00">
        <route edges="437658321#0 437658321#1 437658321#2 437658321#3 437658321#4 437658321#5 437658320 224881192#0 224881192#1 224881192#2 582439650#5"/>
    </vehicle>
    <vehicle id="16" depart="16.00">
        <route edges="437658452#1 437658452#2 437658452#3 437658369 437658403 -118979734#7 -118979734#6 -118979734#5 -118979734#4 -118979734#3 -118979734#2 -118979734#1 -118979734#0 -118979732 -582425080#1 224881192#1 224881192#2 582140790"/>
    </vehicle>
    <vehicle id="17" depart="17.00">
        <route edges="-437731887#3 437731887#3 -437731685#1 118979280#2 582101891#2 582101891#3 582101891#4 582101891#5 582439650#0 582439650#1 437731855#0 437731742"/>
    </vehicle>
    <vehicle id="18" depart="18.00">
        <route edges="-118284708#2 -118284708#1 437658321#5 437658320 224881192#0 224881192#1 582425081#1 582425081#2 582425081#3 582425081#4 582425081#5 582425081#6 -367437904#0"/>
    </vehicle>
    <vehicle id="19" depart="19.00">
        <route edges="582425081#3 118600270#2 -582101891#5 -582101891#4 -582101891#3 -582101891#2 -582101891#1 -437731833 437731833"/>
    </vehicle>
    <vehicle id="20" depart="20.00">
        <route edges="437731815 -582101892#1 -582101892#0 -118274017#3 -118274017#2 -118274017#1 -118274017#0 -118274005 118274014 582101891#0 582101891#1 -118979280#2 118979280#2"/>
    </vehicle>
    <vehicle id="21" depart="21.00">
        <route edges="437658353 -437658353 437658366 437658425#0 437658425#1 118979731#1 118979731#2 582418551#0 582418551#1 582418551#2 582418551#3 582418551#4 437658456#1"/>
    </vehicle>
    <vehicle id="22" depart="22.00">
        <route edges="-118979280#1 118979280#1 118979280#2 582101893#0 582101893#1 437658322 398820552#1 118979635 118979616 118979609 118979631 582418548#0 582418548#1 582418548#2 582418548#3 582418548#4 -224881195#0 437731638 437731639#0 437731639#1 117083278#1"/>
    </vehicle>
    <vehicle id="23" depart="23.00">
        <route edges="-437731698 437658321#4 437658321#5 437658320 224881192#0 224881192#1 224881192#2 582140790"/>
    </vehicle>
    <vehicle id="24" depart="24.00">
        <route edges="-118600274#1 -118600274#0 -118979734#5 -118979734#4 -118979734#3"/>
    </vehicle>
    <vehicle id="25" depart="25.00">
        <route edges="118979280#2 582101891#2 582101891#3 582101891#4 582101891#5 582439650#0 582439650#1 582439650#2 582439650#3 582439650#4 -224881192#2 -224881192#1 -224881192#0 -437658320 -437658321#5 118284708#1 118284708#2"/>
    </vehicle>
    <vehicle id="26" depart="26.00">
        <route edges="437732066#1 -437731877#3 -437731877#2 -437731877#1 -437731877#0 -437731685#4 -437731685#3 -437731685#2 -437731685#1 -437731685#0 -367437920#0"/>
    </vehicle>
    <vehicle id="27" depart="27.00">
        <route edges="-437731815 62298947#3 437658420#0 437658420#1 -118274017#3 -118274017#2 -118274017#1 -118274017#0 -118274005 118274014 582101891#0 582101891#1 582101891#2 367437904#0"/>
    </vehicle>
    <vehicle id="28" depart="28.00">
        <route edges="437658442#2 437658462#0 582437967#2 582437967#3 118979734#6 118979734#7 437658404#0 437658404#1 118979733 118979731#0 118979731#1 118979731#2 582418552 117083294#0 -118600268#1 118979615#1 582425076"/>
    </vehicle>
    <vehicle id="29" depart="29.00">
        <route edges="437658428#1 118600274#1 118600274#2 118600269 118600270#0 118600270#1 118600270#2 -582101891#5 -582101891#4 -582101891#3 -582101891#2 -582101891#1 -437731833 437731685#4"/>
    </vehicle>
    <vehicle id="30" depart="30.00">
        <route edges="582425081#7 -398820551 -582101893#1 -582101893#0 -582101891#1 -437731833 437731685#4 -437731685#4"/>
    </vehicle>
    <vehicle id="31" depart="31.00">
        <route edges="-437731833 437731833 582101891#1 582101891#2 582101891#3 582101891#4 582101891#5 582439650#0 582439650#1 582439650#2 582439650#3 582439650#4 -224881192#2 -582425081#0 -118979636"/>
    </vehicle>
    <vehicle id="32" depart="32.00">
        <route edges="-437731819#1 -437731819#0 -437731856#2 -437731743 -582439650#0 -582101891#5 -582101891#4 -582101891#3 -582101891#2 -118979280#2 437731685#1 -437731887#3 -437731887#2 -582110791#0"/>
    </vehicle>
    <vehicle id="33" depart="33.00">
        <route edges="437658436 -118979734#7 -118979734#6 118600274#0 118600274#1 118600274#2 118600269 118600270#0 118600270#1 118600270#2 582439649"/>
    </vehicle>
    <vehicle id="34" depart="34.00">
        <route edges="437658403 -118979734#7 -118979734#6 118600274#0 118600274#1 118600274#2 118600269 118600270#0 118600270#1 118600270#2 582439650#0 582439650#1 582439650#2 582439650#3 -367437906#1 -367437906#0"/>
    </vehicle>
    <vehicle id="35" depart="35.00">
        <route edges="582425079#0 582425081#2 582425081#3 582425081#4 582425081#5 582425081#6 582425081#7 398820552#0 398820552#1 118979635 118979616 118979609 118979631 582418548#0 582418550#0 437658456#0 437658456#1"/>
    </vehicle>
    <vehicle id="36" depart="36.00">
        <route edges="-367437906#1 367437906#1 -582439650#3 -582439650#2 -582439650#1 -582439650#0 -582101891#5 -582101891#4 -582101891#3 -582101891#2 582101893#0 582101893#1 398820551 -398820551"/>
    </vehicle>
    <vehicle id="37" depart="37.00">
        <route edges="118979280#1 118979280#2 582101891#2 582101891#3 582101891#4 582101891#5 -118600270#2 -118600270#1 -118600270#0 -118600269 -118600274#2 -118600274#1 -118600274#0 -582437965#4 -582437965#3 -582437965#2 437658462#0 437658462#1 437658462#2 437658321#2 437658460#1 437658422#0"/>
    </vehicle>
    <vehicle id="38" depart="38.00">
        <route edges="-582140790 -582439650#4 -582439650#3 -582439650#2 437731855#0"/>
    </vehicle>
    <vehicle id="39" depart="39.00">
        <route edges="-582439650#4 -582439650#3 -582439650#2 -582439650#1 -582439650#0 -582101891#5 -582101891#4 -582101891#3 -582101891#2 582101893#0 582101893#1 437658322 398820552#1 118979635 118979616 118979609 118979631 582418548#0 582418548#1 582418548#2 582418548#3 582418548#4 -582418548#4"/>
    </vehicle>
    <vehicle id="40" depart="40.00">
        <route edges="224881195#0 224881195#1 437731788"/>
    </vehicle>
    <vehicle id="41" depart="41.00">
        <route edges="367437906#0 367437906#1 582439650#4 -224881192#2 -224881192#1 582425080#1 118979732 118979734#0 118979734#1 118979734#2 118979734#3 118979734#4 118979734#5"/>
    </vehicle>
    <vehicle id="42" depart="42.00">
        <route edges="-437658353 437658366 437658425#0 437658425#1 118979731#1 118979731#2 582418551#0 582418551#1 582418551#2 582418551#3 582418551#4 582418551#5 -118979631 -118979609 -118979616 -118979635 -398820552#1 -437658322 437658337"/>
    </vehicle>
    <vehicle id="43" depart="43.00">
        <route edges="582101893#1 437658322 398820552#1 118979635 118979616 118979609 118979631 582418548#0 582418550#0 582418550#1 582418550#2 582418550#3 582418550#4 582418550#5 117083294#0 117083294#1 118979634 118979627#0 -117083290#1 -117083290#0"/>
    </vehicle>
    <vehicle id="44" depart="44.00">
        <route edges="437731847#0 582418551#4 582418551#5 -118979631 -118979609 -118979616 -118979635 -398820552#1 -437658322 -582101893#1 -582101893#0 582101891#2 582101891#3 582101891#4 582101891#5 582439649"/>
    </vehicle>
    <vehicle id="45" depart="45.00">
        <route edges="-118600270#2 582425081#4 582425081#5 582425081#6 582425081#7 398820552#0 398820552#1 118979635 118979616 118979609 118979631 582418548#0 582418548#1 582418548#2 582418548#3"/>
    </vehicle>
    <vehicle id="46" depart="46.00">
        <route edges="582418550#5 4557622 437658452#0 437658452#1 437658452#2 437658452#3 437658369 437658403 -118979734#7 -118979734#6 -582437965#4 -582437965#3 -582437965#2 -582437965#1 -437658354#0 582437967#1"/>
    </vehicle>
    <vehicle id="47" depart="47.00">
        <route edges="582439649 -582439649 -118600270#2 -582425081#3 437731718"/>
    </vehicle>
    <vehicle id="48" depart="48.00">
        <route edges="437731685#4 437731685#5 -582101890#0 -118274014 118274005 118274017#0 118274017#1 118274017#2 118274017#3 118979620#0 118979620#1 118979620#2 437731827 582418548#2 582418548#3 582418548#4 224881195#1"/>
    </vehicle>
    <vehicle id="49" depart="49.00">
        <route edges="367437920#0 367437920#1 -582101891#4 -582101891#3 -582101891#2 -582101891#1 -582101891#0 -118274014 118274005 118274017#0 118274017#1 118274017#2 118274017#3 -437731878#3 -437731878#2"/>
    </vehicle>
    <vehicle id="50" depart="50.00">
        <route edges="437732066#0 437732066#1 437732066#2 582101889 437658545 437658546 437658420#0 437658420#1 118979620#0 118979620#1 118979620#2 118979620#3 -582418548#0 582418549#0"/>
    </vehicle>
    <vehicle id="51" depart="51.00">
        <route edges="117083290#0 117083278#2 118979629 118979615#0 118979615#1 118979615#2 437658452#0 586586444#1 582418551#0 582418551#1 -437731843#0 582418550#5"/>
    </vehicle>
    <vehicle id="52" depart="52.00">
        <route edges="582439649 118979280#1 -118979280#1"/>
    </vehicle>
    <vehicle id="53" depart="53.00">
        <route edges="437658412 437658321#1 437658321#2 437658460#1 437658460#2 582437967#3 118600274#0 118600274#1 118600274#2 118600269 118600270#0 118600270#1 582425081#4 582425081#5 582425081#6 582425081#7 398820552#0 398820552#1 118979635 118979616 118979609 118979631 582418548#0 582418548#1 582418548#2 582418548#3 582418548#4 582418548#5"/>
    </vehicle>
    <vehicle id="54" depart="54.00">
        <route edges="-582439650#0 -118600270#2 -118600270#1 -118600270#0 -118600269 -118600274#2 -118600274#1 -118600274#0 -582437965#4 -582437965#3 -582437965#2 437658462#0 582437967#2 582437967#3"/>
    </vehicle>
    <vehicle id="55" depart="55.00">
        <route edges="-437658351 437658435#1 437658452#2 437658452#3 437658369 437658403 -118979734#7 -118979734#6 118600274#0 118600274#1 118600274#2 118600269 118600270#0 -437731873#4"/>
    </vehicle>
    <vehicle id="56" depart="56.00">
        <route edges="437732066#0 437732066#1 437732066#2 582101889 437658545 437658546 437658420#0 437658420#1 118979620#0 118979620#1 118979620#2 118979620#3 582418550#0 582418550#1 582418550#2 582418550#3 582418550#4 582418550#5 4557622 437658452#0 437658452#1 437658452#2 -437658425#0 -437658366 437658353 -437658353"/>
    </vehicle>
    <vehicle id="57" depart="57.00">
        <route edges="437658460#2 582437967#3 -118979734#5 437658429"/>
    </vehicle>
    <vehicle id="58" depart="58.00">
        <route edges="-437658321#3 437658460#1 437658460#2 437658460#3 437658426#0 437658339#3 -437658353 437658353"/>
    </vehicle>
    <vehicle id="59" depart="59.00">
        <route edges="-437731743 -582439650#0 -118600270#2 -118600270#1 -118600270#0 -118600269 -118600274#2 -118600274#1 -118600274#0 118979734#6 -437658339#5 -437731789"/>
    </vehicle>
    <vehicle id="60" depart="60.00">
        <route edges="437732066#0 437732066#1 437732066#2 582101889 437658545 437658546 437658420#0 437658420#1 118979620#0 118979620#1 118979620#2 118979620#3 -582418548#0 -118979631 -118979609 -118979616 -118979635 -398820552#1 -398820552#0 -582425081#7 582425081#7"/>
    </vehicle>
    <vehicle id="61" depart="61.00">
        <route edges="582418550#4 582418550#5 4557622 437658452#0 437658452#1 437658452#2 437658452#3 437658369 437658403 -118979734#7 -118979734#6 -118979734#5 -118979734#4 -118979734#3 -118979734#2 -437658422#1 -437658422#0"/>
    </vehicle>
    <vehicle id="62" depart="62.00">
        <route edges="437658460#0 -437658321#2 437658462#3"/>
    </vehicle>
    <vehicle id="63" depart="63.00">
        <route edges="582101889 437658545 437658546 437658420#0 437658420#1 -118274017#3 -118274017#2 -118274017#1 -118274017#0 -118274005 118274014 582101891#0 582101891#1 582101891#2 582101891#3 437731858"/>
    </vehicle>
    <vehicle id="64" depart="64.00">
        <route edges="582110791#1 -437731876#1 -437731876#0 -437731685#2 -437731685#1 118979280#2 582101891#2 582101891#3 582101891#4 582101891#5 582439650#0 582439650#1 582439650#2 582439650#3 582439650#4 582140790"/>
    </vehicle>
    <vehicle id="65" depart="65.00">
        <route edges="437658422#0 437658422#1 118979734#2 118979734#3 118979734#4 118979734#5 118600274#0 118600274#1 118600274#2 118600269 118600270#0 118600270#1 582425081#4 582425081#5 582425081#6 582425081#7 398820552#0 398820552#1 118979635 118979616 118979609 118979631 582418549#0 582418549#1 582418549#2 582101892#0 -582101892#0"/>
    </vehicle>
    <vehicle id="66" depart="66.00">
        <route edges="-582439650#5 -582439650#4 -582439650#3 -582439650#2 -582439650#1 -582439650#0 -582101891#5 -582101891#4 -582101891#3 -582101891#2 582101893#0 582101893#1 437658322 398820552#1 118979635 118979616 118979609 118979631 582418548#0 582418550#0 582418550#1 582418550#2 582418550#3 582418550#4 437731843#0 437731843#1"/>
    </vehicle>
    <vehicle id="67" depart="67.00">
        <route edges="-437658321#3 437658460#1 437658460#2 582437967#3 118600274#0 118600274#1 118600274#2 118600269 118600270#0 118600270#1 118600270#2 -582101891#5 -582101891#4 -582101891#3 -582101891#2 -582101891#1 -437731833 437731833"/>
    </vehicle>
    <vehicle id="68" depart="68.00">
        <route edges="118600270#2 -582101891#5 -582101891#4 -582101891#3 -582101891#2 582101893#0 582101893#1 437658322 398820552#1 118979635 118979616 118979609 118979631 582418548#0 582418550#0"/>
    </vehicle>
    <vehicle id="69" depart="69.00">
        <route edges="-437658400 582101893#1 437658322 398820552#1 118979635 118979616 118979609 118979631 582418548#0 582418550#0 582418550#1 582418550#2 582418550#3 582418550#4 582418550#5 117083294#0 117083294#1 118979634 118979627#0 -117083290#1 -117083290#0"/>
    </vehicle>
    <vehicle id="70" depart="70.00">
        <route edges="-437731672#2 -437731672#1 582418550#3 582418550#4 582418550#5 4557622 437658452#0 437658452#1 437658452#2 437658452#3 437658369 437658403"/>
    </vehicle>
    <vehicle id="71" depart="71.00">
        <route edges="582110791#0 437731887#2 437731887#3 -437731685#1 118979280#2 582101891#2 582101891#3 582101891#4 582101891#5 582439650#0 582439650#1 582439650#2 582439650#3 582439650#4 -224881192#2 -582425081#0 -118979636"/>
    </vehicle>
    <vehicle id="72" depart="72.00">
        <route edges="118600274#1"/>
    </vehicle>
    <vehicle id="73" depart="73.00">
        <route edges="582425085 582425081#0 224881192#2 -582439650#4 -582439650#3 437731749 -437731749"/>
    </vehicle>
    <vehicle id="74" depart="74.00">
        <route edges="437658460#0 437658321#3 437658321#4 -118284708#0"/>
    </vehicle>
    <vehicle id="75" depart="75.00">
        <route edges="-582437965#3 -582437965#2 437658462#0 582437967#2 582437967#3 118979734#6 118979734#7 437658404#0 437658404#1 118979733 118979731#0 118979731#1 118979731#2 582418552 117083294#0 117083294#1 118979634 118979627#0 -117083290#1 -117083290#0"/>
    </vehicle>
    <vehicle id="76" depart="76.00">
        <route edges="-437731789 437731789 437658339#5 -118979734#6 -118979734#5 -118979734#4 -118979734#3 -118979734#2 -118979734#1 -118979734#0 -118979732 -582425080#1 -582425080#0 582425081#0"/>
    </vehicle>
    <vehicle id="77" depart="77.00">
        <route edges="582418551#5 -118979631 -118979609 -118979616 -118979635 -398820552#1 -437658322 437658337"/>
    </vehicle>
    <vehicle id="78" depart="78.00">
        <route edges="437658460#0 437658460#1 437658460#2 582437967#3 118600274#0 118600274#1 118600274#2 118600269 118600270#0 118600270#1 118600270#2 582439649 118979280#1"/>
    </vehicle>
    <vehicle id="79" depart="79.00">
        <route edges="-437658420#1 437658420#1 118979620#0 -582418541#1 -582418541#0 -437731878#1 582418544 -582418544"/>
    </vehicle>
    <vehicle id="80" depart="80.00">
        <route edges="437658321#3 437658321#4 437658321#5 437658320 224881192#0 224881192#1 582425081#1 582425081#2 582425081#3 582425081#4 582425081#5 582425081#6 582425081#7 398820552#0 398820552#1 118979635 118979616 118979609 118979631 582418548#0 582418548#1 582418548#2 582418548#3 582418548#4 224881195#1 -224881195#1"/>
    </vehicle>
    <vehicle id="81" depart="81.00">
        <route edges="437731789 437658339#5 118979734#7 437658404#0 437658404#1 118979733 118979731#0 118979731#1 118979731#2 582418551#0 582418551#1 582418551#2 582418551#3 582418551#4 582418551#5 582418548#0 582418548#1 582418548#2 582418548#3 582418548#4 224881195#1 224881195#2 -224881195#2"/>
    </vehicle>
    <vehicle id="82" depart="82.00">
        <route edges="437658321#3 437658321#4 437658321#5 437658320 224881192#0 224881192#1 224881192#2 -582439650#4 -582439650#3 -582439650#2 -582439650#1 -582439650#0 -582101891#5 -582101891#4 -582101891#3 -582101891#2 -582101891#1 -582101891#0 582101890#0"/>
    </vehicle>
    <vehicle id="83" depart="83.00">
        <route edges="-582437965#3 -582437965#2 437658462#0 582437967#2 582437967#3 -118979734#5 -118979734#4 -118979734#3 -118979734#2 -118979734#1 -118979734#0 -118979732 -582425080#1 224881192#1 582425081#1"/>
    </vehicle>
    <vehicle id="84" depart="84.00">
        <route edges="-437658422#0 437658460#2 582437967#3 118979734#6 118979734#7 437658404#0 437658404#1 118979733 118979731#0 118979731#1 118979731#2 582418552 117083294#0 117083294#1 118979634 118979627#0 -117083290#1 -117083290#0"/>
    </vehicle>
    <vehicle id="85" depart="85.00">
        <route edges="582418551#1 582418551#2 582418551#3 582418551#4 582418551#5 -118979631 -118979609 -118979616 -118979635 -398820552#1 -437658322 -582101893#1 -582101893#0 -118979280#2"/>
    </vehicle>
    <vehicle id="86" depart="86.00">
        <route edges="582418549#0 -582418541#2 118979620#1 118979620#2 437731827 582418548#2 582418548#3 -582418548#3"/>
    </vehicle>
    <vehicle id="87" depart="87.00">
        <route edges="437658422#0 437658422#1 118979734#2 118979734#3 118979734#4 118979734#5 118600274#0 118600274#1 118600274#2 118600269 118600270#0 118600270#1 582425081#4 582425081#5 582425081#6 582425081#7 398820552#0 398820552#1 118979635 118979616 118979609 118979631 582418549#0 582418549#1 582418549#2 582101892#0"/>
    </vehicle>
    <vehicle id="88" depart="88.00">
        <route edges="437658403 -118979734#7 -118979734#6 -118979734#5 -118979734#4 -118979734#3 -118979734#2 -118979734#1 118284708#0 -437658321#4 -437658321#3"/>
    </vehicle>
    <vehicle id="89" depart="89.00">
        <route edges="224881195#1 224881195#2 224881195#3 -582101892#3 -582101892#2 -582101892#1 -582101892#0 -437658420#1 -437658420#0 437732065#0 437732065#1 437732064 437732067#0 437732067#1 437732067#2 437731887#1 -582110791#0"/>
    </vehicle>
    <vehicle id="90" depart="90.00">
        <route edges="437658422#0 437658422#1 -437658422#1"/>
    </vehicle>
    <vehicle id="91" depart="91.00">
        <route edges="437658404#1 118979733 118979731#0 118979731#1 118979731#2 582418552 117083294#0 117083294#1 118979634 118979627#0 -117083290#1 -117083290#0"/>
    </vehicle>
    <vehicle id="92" depart="92.00">
        <route edges="224881195#3 -582101892#3 -582101892#2 -582101892#1 -582101892#0 118979620#0 -582418541#1 582418541#1"/>
    </vehicle>
    <vehicle id="93" depart="93.00">
        <route edges="582418551#1 582418551#2 582418551#3 582418551#4 582418551#5 582418549#0 582418549#1 437658430#0 437658430#1 -118274017#2 -118274017#1 -118274017#0 -118274005 118274014 582101890#0 -437731685#5 -437731685#4"/>
    </vehicle>
    <vehicle id="94" depart="94.00">
        <route edges="437658435#0 437658435#1 437658452#2 437658425#1 118979731#1 118979731#2 582418551#0 582418551#1 582418551#2 582418551#3 582418551#4 582418551#5 582418549#0 582418549#1 582418549#2 -437658420#1 -437658420#0 -62298947#3 437731815"/>
    </vehicle>
    <vehicle id="95" depart="95.00">
        <route edges="367437920#0 367437920#1 -582101891#4 -582101891#3 -582101891#2 582101893#0 582101893#1 437658322 398820552#1 118979635 118979616 118979609 118979631 582418548#0 582418548#1 582418548#2 582418548#3 582418548#4"/>
    </vehicle>
    <vehicle id="96" depart="96.00">
        <route edges="437658321#4 437658321#5 437658320 224881192#0 224881192#1 582425081#1 582425081#2 582425081#3 582425081#4 582425081#5 582425081#6 582425081#7 -398820551 437658337"/>
    </vehicle>
    <vehicle id="97" depart="97.00">
        <route edges="437731843#1 -437731843#1 582418551#2 582418551#3 582418551#4 582418551#5 582418549#0 582418549#1 582418549#2 -437658420#1 -437658420#0 -62298947#3 62298947#3"/>
    </vehicle>
    <vehicle id="98" depart="98.00">
        <route edges="118284708#1 -118284708#1 -437658321#4 -437658321#3 437658460#1 437658460#2 437658460#3 437658426#0 -437658339#2 -437658339#1 -437658354#1"/>
    </vehicle>
    <vehicle id="99" depart="99.00">
        <route edges="437731685#0 437731685#1 437731685#2 437731685#3 437731685#4 437731877#0 437731877#1 437731877#2 437731877#3 437732066#2"/>
    </vehicle>
    <vehicle id="100" depart="100.00">
        <route edges="437658436 -118979734#7 -118979734#6 -582437965#4 -582437965#3 -582437965#2 437658462#0 437658462#1 437658462#2 -437658321#1 -437658321#0"/>
    </vehicle>
    <vehicle id="101" depart="101.00">
        <route edges="437731685#0 118979280#2 582101891#2 582101891#3 582101891#4 582101891#5 582439649"/>
    </vehicle>
    <vehicle id="102" depart="102.00">
        <route edges="-582418548#4 -582418548#3 -582418548#2 -582418548#1 582418550#0 582418550#1 582418550#2 582418550#3 582418550#4 582418550#5 4557622 437658452#0 586586444#1 582418551#0 582418551#1"/>
    </vehicle>
    <vehicle id="103" depart="103.00">
        <route edges="437732066#0 437732066#1 437732066#2 582101889 437658545 437658546 437658420#0 437658420#1 118979620#0 118979620#1 118979620#2 118979620#3 582418550#0 582418550#1 582418550#2 582418550#3 582418550#4 582418550#5 4557622 437658452#0 437658452#1 437658452#2 437658452#3 437658369 437658403 -118979734#7 -437658339#5"/>
    </vehicle>
    <vehicle id="104" depart="104.00">
        <route edges="-582101890#0 582101891#0 582101891#1 582101891#2 582101891#3 582101891#4 582101891#5 582439649"/>
    </vehicle>
    <vehicle id="105" depart="105.00">
        <route edges="-437731873#0 437731873#0 437731873#1 437731873#2 437731873#3 437731873#4 -118600270#0 -118600269 -118600274#2 -118600274#1 -118600274#0 -582437965#4 -582437965#3 437658426#0 -437658339#2 -437658339#1 -437658339#0"/>
    </vehicle>
    <vehicle id="106" depart="106.00">
        <route edges="-118979732 -582425080#1 224881192#1 582425081#1 582425081#2 582425081#3 582425081#4 582425081#5 582425081#6 582425081#7 398820552#0 398820552#1 118979635 118979616 118979609 118979631 582418548#0 582418548#1 582418548#2 582418548#3 582418548#4 224881195#1 437731788"/>
    </vehicle>
    <vehicle id="107" depart="107.00">
        <route edges="-437731788 -224881195#1 -582418548#4 -582418548#3 -582418548#2 -582418548#1 582418550#0 582418550#1 582418550#2 582418550#3 582418550#4 582418550#5 4557622 437658452#0 437658452#1 -437658435#1 -437658435#0"/>
    </vehicle>
    <vehicle id="108" depart="108.00">
        <route edges="-118284708#2 -118284708#1 -118284708#0 118979734#1 118979734#2 118979734#3 118979734#4 118979734#5 118979734#6 118979734#7 437658404#0 437658404#1 118979733 118979731#0 118979731#1 118979731#2 582418551#0 582418551#1 -437731843#0 582418550#5"/>
    </vehicle>
    <vehicle id="109" depart="109.00">
        <route edges="582437967#0 582437967#1 582437967#2 582437967#3 118979734#6 118979734#7 437658404#0 437658428#0 437658390#0"/>
    </vehicle>
    <vehicle id="110" depart="110.00">
        <route edges="582101892#1 -582101892#1 -582101892#0 -437658420#1 -437658420#0 437732065#0 437732065#1 437732064 437732067#0 582101890#2 582101889 437658545"/>
    </vehicle>
    <vehicle id="111" depart="111.00">
        <route edges="582110791#0 437731887#2 437731887#3 -437731685#1 118979280#2 582101891#2 582101891#3 582101891#4 582101891#5 -118600270#2 -118600270#1 -118600270#0 -118600269 -118600274#2 -118600274#1 -118600274#0 -582437965#4 -582437965#3 -582437965#2 437658462#0 437658462#1 437658462#2 437658321#2 437658460#1 437658460#2"/>
    </vehicle>
    <vehicle id="112" depart="112.00">
        <route edges="224881192#2 -582439650#4 -582439650#3 -582439650#2 -582439650#1 -582439650#0 -582101891#5 -582101891#4 -582101891#3 -582101891#2 -582101891#1 -582101891#0 -118274014 118274005 118274017#0 118274017#1 118274017#2 118274017#3 118979620#0 -582418541#1"/>
    </vehicle>
    <vehicle id="113" depart="113.00">
        <route edges="582101891#4 582101891#5 -118600270#2 -118600270#1 -118600270#0 -118600269 -118600274#2 -118600274#1 -118600274#0 -582437965#4 -582437965#3"/>
    </vehicle>
    <vehicle id="114" depart="114.00">
        <route edges="-437658429 118979734#5 118979734#6 118979734#7 437658404#0 437658404#1 118979733 118979731#0 118979731#1 118979731#2 582418551#0 582418551#1 582418551#2 582418551#3 582418551#4 582418551#5"/>
    </vehicle>
    <vehicle id="115" depart="115.00">
        <route edges="-224881195#3 -224881195#2 -224881195#1 -224881195#0 437731638 437731639#0 437731639#1 117083278#1"/>
    </vehicle>
    <vehicle id="116" depart="116.00">