<?xml version="1.0" encoding="UTF-8"?>

<!-- generated on Wed May 16 19:25:30 2018 by SUMO polyconvert Version 0.32.0
<?xml version="1.0" encoding="UTF-8"?>

<configuration xmlns:xsi="http://www.w3.org/2001/XMLSchema-instance" xsi:noNamespaceSchemaLocation="http://sumo.dlr.de/xsd/polyconvertConfiguration.xsd">

    <input>
        <net-file value="hangzhou.net.xml"/>
        <osm-files value="hangzhou.osm"/>
        <type-file value="osmPolyconvert.typ.xml"/>
    </input>

    <output>
        <output-file value="hangzhou.poly.xml"/>
    </output>

    <processing>
        <poi-layer-offset value="5"/>
    </processing>

</configuration>
-->

<additional xmlns:xsi="http://www.w3.org/2001/XMLSchema-instance" xsi:noNamespaceSchemaLocation="http://sumo.dlr.de/xsd/additional_file.xsd">
    <location netOffset="-780913.59,-3325793.98" convBoundary="-1011.08,-1230.83,9814.93,9310.80" origBoundary="119.903106,30.019156,120.014844,30.114297" projParameter="+proj=utm +zone=50 +ellps=WGS84 +datum=WGS84 +units=m +no_defs"/>

    <poly id="118600275" type="water" color="181,209,209" fill="0" layer="-4.00" shape="2597.32,9310.80 2563.07,9250.95 2484.79,9196.41 2333.14,9133.47 2306.14,9120.01 2286.87,9101.90 2265.01,9069.00 2246.41,9044.74 2190.33,8974.91 2152.71,8908.56 2126.25,8888.20 2075.68,8845.29 2062.84,8821.80 2057.38,8769.03 2052.04,8755.51 2056.93,8709.40 2061.19,8701.68 2063.31,8682.78 2063.47,8656.01 2060.08,8623.90 2058.16,8578.03 2064.70,8565.32 2063.04,8549.31 2060.65,8521.45 2054.11,8473.91 2046.19,8459.81 2042.14,8436.52 2044.55,8423.20 2055.09,8375.59 2071.75,8351.81 2104.62,8321.25 2109.74,8303.35 2101.34,8278.35 2107.32,8271.52 2108.43,8253.38 2117.36,8228.37 2126.83,8202.35 2136.91,8152.15 2151.02,8086.61 2154.17,8044.98 2157.08,8032.17 2156.38,7999.19 2152.44,7971.28 2145.59,7935.58 2142.29,7862.88 2147.77,7831.10 2159.67,7770.64 2172.04,7530.99 2181.77,7456.68 2171.59,7369.90 2142.61,7168.36 2096.45,6928.58 2010.23,6721.04 1955.65,6588.84 1900.50,6439.09 1886.26,6429.45 1875.99,6385.94 1877.58,6342.04 1890.99,6325.54 1891.86,6291.58 1887.22,6270.85 1871.94,6261.20 1867.72,6224.01 1825.13,6108.57 1798.06,6052.62 1769.34,6041.58 1757.86,6027.53 1750.26,5938.09 1769.99,5877.46 1811.02,5731.21 1848.93,5643.96 1860.03,5556.32 1855.84,5447.28 1943.23,5340.08 1972.60,5262.91 2089.69,5057.83 2130.58,4956.89 2172.09,4894.76 2272.43,4856.18 2306.06,4814.92 2306.49,4727.36 2326.38,4690.68 2406.93,4618.58 2428.21,4516.11 2498.09,4456.09 2547.22,4397.61 2527.64,4353.83 2433.66,4304.02 2409.62,4272.50 2500.20,4192.73 2665.59,4062.74 2717.49,4057.89 2865.01,4039.02 2890.75,4004.66 2889.79,3961.37 2879.18,3891.04 2880.13,3880.34 2890.85,3759.46 2910.16,3572.45 2926.30,3488.68 2930.12,3420.79 2883.48,3382.49 2816.55,3347.50 2800.69,3300.00 2814.58,3262.95 2877.37,3217.49 2980.00,3172.73 3006.11,3144.25 3055.04,3013.62 3097.76,2882.84 3121.65,2791.48"/>
    <poly id="118600278" type="water" color="181,209,209" fill="0" layer="-4.00" shape="-1011.08,2677.18 -654.02,2668.96 -457.21,2666.74 18.74,2681.96 597.22,2697.75 826.91,2705.69 1923.23,2773.92 1955.70,2775.52 2010.17,2778.20 2147.98,2784.96 2533.86,2803.93 2597.60,2822.05 2820.01,2871.05 2946.58,2861.95 3032.14,2837.37 3121.65,2791.48 3147.30,2788.81 3208.82,2732.70 3322.97,2642.90 3408.37,2544.14 3451.51,2477.24 3423.50,2359.05 3435.87,2281.06 3455.08,2258.89 3514.31,2210.95 3678.45,1388.31"/>
    <poly id="118979277" type="water" color="181,209,209" fill="0" layer="-4.00" shape="2157.35,5963.05 2181.39,5954.40 2207.25,5955.07 2319.79,5967.23 2403.59,5969.38 2475.45,5952.69 2539.83,5904.91 2638.83,5839.48 2692.87,5791.43 2733.72,5732.73 2772.03,5632.26 2844.21,5442.52 3039.88,5001.51 3208.18,4647.38 3240.92,4564.52 3300.46,4421.57 3413.85,4182.65 3511.47,3948.99 3530.77,3883.55 3533.29,3832.82 3528.75,3782.79 3522.82,3752.23 3489.45,3618.72 3484.06,3566.56 3482.29,3536.89 3492.56,3478.17 3520.62,3413.98 3583.97,3328.82 3610.74,3292.67 3678.95,3217.68 3813.83,3087.22 3822.37,3079.45 3905.21,3037.54 3948.22,3022.39 3988.30,3008.27 4067.84,2955.71 4173.15,2889.66 4258.79,2840.11 4455.41,2727.47 4477.06,2708.97 4542.12,2676.13 4625.02,2656.14 4711.83,2642.93 4765.62,2623.45 4799.17,2609.64 4838.61,2576.84"/>
    <poly id="437658287" type="tourism" color="207,245,201" fill="1" layer="-2.00" shape="3541.04,2134.88 3571.92,2142.38 3583.84,2161.75 3564.50,2329.20 3510.87,2320.61 3435.53,2297.34 3438.36,2286.41 3461.42,2255.58 3510.42,2218.07 3524.46,2195.24 3541.04,2134.88"/>
    <poly id="437658292" type="water" color="181,209,209" fill="1" layer="-4.00" shape="3229.26,2744.70 3280.81,2753.24 3325.32,2754.39 3353.52,2745.33 3391.04,2715.38 3404.31,2683.26 3426.61,2641.59 3442.16,2600.79 3450.81,2566.49 3450.88,2543.82 3447.35,2520.03 3431.29,2520.13 3403.08,2570.41 3343.71,2623.49 3299.34,2657.37 3257.74,2704.21 3226.47,2732.25 3225.24,2739.96 3229.26,2744.70"/>
    <poly id="437658296" type="man_made" color="255,230,230" fill="0" layer="-1.00" shape="3994.84,2017.28 4029.37,2004.00"/>
    <poly id="437658297" type="tourism" color="207,245,201" fill="1" layer="-2.00" shape="3428.01,2326.33 3523.93,2346.71 3537.70,2358.68 3547.03,2374.33 3551.01,2392.10 3549.21,2410.22 3471.17,2645.20 3459.68,2643.99 3473.33,2591.65 3474.62,2586.68 3476.02,2552.71 3473.62,2525.35 3465.75,2489.07 3453.17,2435.17 3448.15,2431.00 3444.54,2425.57 3442.68,2419.34 3442.68,2412.84 3444.58,2406.61 3430.59,2347.01 3428.01,2326.33"/>
    <poly id="437658298" type="tourism" color="207,245,201" fill="1" layer="-2.00" shape="2555.62,2898.32 2555.10,2837.77 2590.53,2839.20 2622.47,2845.69 2623.36,2851.38 2628.46,2854.35 2628.60,2858.72 2634.80,2862.79 2639.26,2868.68 2641.47,2875.73 2641.17,2883.11 2638.39,2889.95 2633.46,2895.47 2626.96,2899.01 2619.63,2900.18 2612.34,2898.81 2605.93,2895.10 2601.15,2889.45 2593.62,2890.29 2588.13,2922.34 2575.51,2920.21 2575.83,2907.60 2567.77,2898.89 2555.62,2898.32"/>
    <poly id="437658303" type="forest" color="140,196,107" fill="1" layer="-4.00" shape="2915.80,5770.66 2791.02,5829.68 2725.34,5968.08 2654.83,6052.79 2598.54,6148.16 2594.72,6216.05 2569.36,6236.00 2503.63,6215.76 2435.13,6141.90 2398.52,6035.89 2539.06,5965.35 2645.12,5867.13 2439.26,5981.32 2335.64,5984.83 2195.15,5972.98 2138.34,6008.60 2119.02,6034.88 2135.75,6270.16 2286.86,6593.36 2330.95,6650.10 2467.19,6746.32 2494.62,6887.10 2544.12,6974.89 2605.86,6908.51 2759.66,6966.03 2786.02,6987.31 2856.37,6989.12 2940.25,6948.02 3002.21,6953.75 3065.87,6973.93 3099.34,6960.37 3179.45,6904.76 3226.14,6860.64 3382.86,6804.95 3438.73,6726.06 3470.30,6625.93 3493.59,6605.94 3563.57,6622.16 3558.15,6591.12 3499.12,6552.51 3493.71,6521.47 3516.99,6501.48 3550.10,6502.33 3589.04,6517.76 3696.57,6602.94 3738.69,6655.53 3802.73,6661.31 3836.09,6651.88 3899.18,6614.36 3965.40,6535.73 4072.84,6464.35 4172.26,6462.81 4196.56,6484.04 4253.96,6506.12 4338.33,6446.51 4373.76,6437.13 4399.13,6417.18 4406.14,6386.46 4395.38,6322.33 4471.89,6246.02 4562.67,6258.68 4553.59,6289.35 4586.97,6279.90 4643.79,6244.30 4668.16,6183.12 4736.65,6176.67 4761.06,6193.78 4794.05,6198.75 4819.37,6180.87 4829.40,6113.14 4792.65,6013.30 4778.61,5916.12 4804.08,5892.05 4837.57,5878.50 4904.15,5865.81 5005.44,5872.55 5143.21,5989.44 5171.85,6002.55 5320.83,6006.42 5352.09,5999.00 5380.43,5944.11 5364.74,5910.74 5296.93,5890.44 5229.40,5859.83 5174.49,5821.32 5154.44,5796.08 5198.45,5696.27 5322.12,5718.03 5324.94,5689.26 5263.99,5644.40 5198.52,5613.86 5186.91,5582.66 5344.98,5555.87 5362.22,5529.53 5363.02,5498.64 5441.09,5442.98 5490.02,5392.75 5542.72,5357.03 5609.53,5336.12 5636.91,5318.28 5661.17,5261.22 5625.48,5200.54 5644.85,5172.20 5707.47,5153.23 5716.66,5118.44 5692.86,4998.32 5674.93,4971.06 5641.99,4964.03 5608.66,4971.40 5575.77,4962.30 5525.37,4909.48 5512.54,4845.28 5534.63,4792.29 5563.66,4790.98 5659.96,4830.57 5718.85,4875.37 5782.46,4897.63 5797.14,4970.13 5790.08,5002.91 5766.72,5024.97 5773.97,5064.31 5811.79,5122.98 5838.16,5144.27 5866.92,5153.26 5900.13,5150.00 5982.40,5092.39 6101.71,4963.64 6158.77,4919.80 6180.21,4891.51 6378.20,4525.79 6572.86,4287.73 6577.27,4118.88 6606.65,4024.86 6628.72,3893.56 6606.65,3866.19 6490.56,3791.05 6456.83,3734.53 6437.90,3666.03 6422.05,3638.83 6393.45,3623.66 6358.26,3622.74 6301.47,3656.29 6231.97,3780.18 6178.67,3838.55 6125.91,3876.32 6103.79,3851.02 6104.60,3820.13 6148.79,3633.76 6117.59,3639.14 6087.06,3698.10 6042.15,3752.56 5977.24,3779.72 5948.70,3762.50 5948.45,3692.43 5982.18,3590.27 6018.70,3539.71 6044.08,3519.76 6075.28,3514.39 6094.55,3490.16 6091.21,3459.17 6062.83,3435.77 5914.73,3396.88 5741.86,3274.92 5649.87,3307.56 5679.32,3370.14 5682.60,3403.20 5681.79,3434.09 5644.84,3501.13 5634.80,3568.87 5667.25,3674.81 5662.15,3711.77 5619.36,3764.22 5436.04,4124.18 5410.85,4296.61 5340.23,4463.74 5273.93,4544.44 5215.08,4577.93 5136.01,4592.36 5065.66,4590.54 4963.83,4604.37 4928.64,4603.46 4900.10,4586.24 4909.23,4553.51 4934.60,4533.56 5030.59,4505.14 5242.13,4413.80 5302.27,4330.88 5330.83,4267.74 5347.88,4169.28 5408.74,3979.23 5403.35,3867.83 5449.67,3679.46 5462.80,3572.64 5500.39,3480.88 5549.23,3434.76 5547.66,3335.81 5488.19,3233.28 5418.46,3206.75 5392.09,3185.46 5368.11,3151.86 5327.90,3025.11 5306.50,2892.67 5274.63,2764.07 5180.29,2648.28 5121.43,2601.41 5090.70,2588.24 5057.75,2581.21 4950.07,2580.48 4909.35,2633.00 4859.40,2722.38 4858.44,2759.45 4900.30,2822.36 5019.58,2934.67 5024.83,2971.90 5015.75,3002.58 4990.21,3028.70 4983.16,3061.50 5010.23,3295.06 5068.15,3457.29 5089.14,3606.20 5067.99,3782.87 5054.71,3815.50 5024.94,3845.64 4963.79,3887.31 4844.11,4030.52 4850.67,4096.62 4895.96,4266.76 4892.99,4301.71 4869.63,4323.76 4838.91,4310.61 4772.65,4230.58 4731.53,4138.86 4726.18,4105.75 4703.95,4084.57 4552.92,4078.60 4518.22,4059.15 4494.20,4027.62 4421.72,3867.08 4424.65,3834.19 4507.23,3764.20 4534.62,3746.37 4567.89,3741.05 4600.68,3754.26 4628.91,3783.84 4647.20,3877.05 4589.03,3964.14 4598.63,3993.24 4697.49,4014.34 4730.65,4013.15 4821.51,3943.38 4900.17,3865.06 4915.46,3834.55 4916.26,3803.66 4892.18,3774.18 4822.34,3751.77 4798.04,3730.53 4802.98,3699.75 4909.60,3661.30 4937.04,3641.41 4960.71,3606.99 4972.77,3541.37 4862.83,3468.45 4838.68,3441.04 4811.36,3376.44 4816.30,3345.67 4881.05,3324.68 4898.31,3298.33 4904.00,3158.36 4856.69,3066.46 4855.52,3031.40 4872.78,3005.05 4881.96,2970.26 4874.54,2937.09 4816.60,2855.22 4781.52,2850.20 4752.85,2917.46 4724.69,3124.86 4671.44,3261.55 4632.58,3402.72 4586.76,3492.21 4535.81,3540.34 4479.08,3571.84 4315.88,3635.62 4073.85,3625.23 4038.82,3618.14 3947.02,3564.25 3890.14,3521.57 3777.00,3411.49 3709.13,3393.25 3675.96,3394.46 3648.53,3414.36 3631.22,3442.76 3606.01,3536.90 3605.06,3573.96 3628.94,3611.66 3664.80,3666.17 3779.58,3712.41 3801.71,3737.70 3802.98,3768.65 3781.54,3796.94 3718.49,3832.41 3703.26,3860.86 3701.45,3930.87 3727.83,3952.16 3760.94,3953.02 3785.35,3970.12 3794.10,4032.16 3780.88,4062.73 3875.33,4174.38 3932.26,4295.36 3900.94,4304.85 3865.82,4301.89 3772.01,4245.88 3741.12,4238.91 3725.89,4267.36 3741.54,4302.79 3876.90,4434.04 3907.57,4449.26 3929.80,4470.44 3900.30,4490.28 3829.83,4492.58 3804.35,4516.65 3790.93,4555.44 3782.91,4625.30 3827.31,4669.71 3943.78,4730.42 3988.14,4776.89 4019.75,4835.39 4026.39,4899.44 3993.11,4904.76 3954.27,4885.22 3871.08,4819.19 3800.88,4811.19 3769.52,4822.74 3741.82,4852.94 3719.47,4916.23 3672.20,4902.65 3646.78,4924.66 3613.36,4936.15 3587.78,4964.33 3577.69,5034.13 3593.01,5242.61 3559.79,5245.87 3428.47,5199.22 3316.79,5194.27 3229.13,5140.50 3122.60,5016.20 3085.13,5023.47 3061.73,5047.59 3058.76,5082.54 3074.52,5113.85 3098.66,5141.25 3162.33,5161.45 3225.63,5196.04 3342.88,5306.20 3356.62,5335.40 3357.90,5366.34 3252.62,5594.37 3210.49,5782.81 3177.64,5771.67 3108.67,5716.32 3088.88,5680.79 3073.92,5618.60 3049.73,5593.25 3016.62,5592.39 2979.93,5666.01 2980.54,5767.10 3051.39,5829.71 3057.04,5891.65 3080.17,5958.17 3059.91,5981.35 3005.05,5900.61 2953.45,5853.95 2915.80,5770.66"/>
    <poly id="437658304" type="leisure" color="207,245,201" fill="1" layer="-2.00" shape="1657.81,3324.16 1764.32,3329.98 1768.02,3262.60 1661.52,3256.79 1657.81,3324.16"/>
    <poly id="437658308" type="tourism" color="207,245,201" fill="1" layer="-2.00" shape="2647.80,2948.51 2791.62,3002.79 2789.36,3009.94 2796.42,3015.61 2804.93,3018.68 2813.99,3018.82 2817.01,3012.21 2952.53,3057.69 2951.30,3065.38 2962.07,3069.26 2960.89,3074.90 2992.38,3078.79 3003.42,3071.87 3013.81,3050.50 3055.80,2948.04 3088.47,2845.84 3090.50,2827.34 3086.99,2822.62 3080.26,2822.96 2997.53,2858.44 2915.73,2878.49 2819.79,2884.26 2750.03,2878.86 2706.18,2872.57 2651.27,2853.13 2642.29,2850.07 2641.12,2855.44 2647.25,2864.76 2649.84,2875.60 2648.57,2886.67 2643.59,2896.65 2635.50,2904.34 2625.26,2908.84 2614.09,2909.61 2604.06,2907.03 2596.76,2929.26 2607.41,2933.27 2604.53,2939.50 2619.17,2943.48 2618.29,2947.84 2646.93,2951.41 2647.80,2948.51"/>
    <poly id="437658309" type="forest" color="140,196,107" fill="1" layer="-4.00" shape="3974.94,3485.64 4001.11,3515.16 4198.14,3584.14 4298.01,3566.12 4396.14,3535.69 4503.71,3460.18 4529.40,3427.87 4577.34,3336.38 4611.58,3213.63 4617.23,3075.71 4584.44,3062.49 4523.29,3104.19 4499.78,3132.43 4528.37,3227.96 4527.46,3262.97 4506.08,3289.20 4471.58,3261.52 4455.82,3230.20 4446.72,3102.20 4406.54,3053.76 4285.87,2995.00 4246.49,2996.04 4217.03,3013.83 4189.55,3035.79 4168.05,3066.14 4152.81,3094.60 4151.96,3127.54 4255.06,3225.00 4254.21,3257.95 4224.70,3277.79 4193.81,3270.82 4145.32,3224.22 4112.62,3206.89 4042.37,3200.96 4011.05,3210.44 3916.00,3282.17 3898.75,3308.51 3922.94,3333.87 3975.90,3368.21 4018.10,3418.76 4017.19,3453.76 3974.94,3485.64"/>
    <poly id="437658310" type="water" color="181,209,209" fill="1" layer="-4.00" shape="3165.37,2792.76 3206.44,2786.35 3266.99,2787.40 3320.80,2788.79 3366.98,2785.34 3387.90,2777.12 3409.37,2747.79 3440.25,2695.02 3459.68,2643.99 3473.33,2591.65 3474.62,2586.68 3476.02,2552.71 3473.62,2525.35 3465.75,2489.07 3453.17,2435.17 3448.15,2431.00 3444.54,2425.57 3442.68,2419.34 3442.68,2412.84 3444.58,2406.61 3430.59,2347.01 3428.01,2326.33 3435.53,2297.34 3438.36,2286.41 3461.42,2255.58 3510.42,2218.07 3524.46,2195.24 3541.04,2134.88 3549.71,2105.59 3516.75,2100.67 3503.56,2122.58 3490.90,2151.62 3485.14,2174.15 3477.31,2196.61 3428.62,2240.18 3422.16,2251.99 3403.44,2275.21 3401.23,2285.37 3393.45,2321.32 3399.61,2383.30 3417.28,2440.94 3416.67,2464.63 3399.27,2496.63 3361.28,2544.60 3304.74,2608.57 3271.35,2628.31 3204.43,2693.56 3139.56,2749.34 3165.37,2792.76"/>
    <poly id="437658311" type="man_made" color="255,230,230" fill="1" layer="-1.00" shape="2054.96,2758.40 2086.26,2760.07 2115.47,2761.49 2150.51,2798.20 2118.74,2796.03 2090.30,2793.57 2054.96,2758.40"/>
    <poly id="437658313" type="tourism" color="207,245,201" fill="1" layer="-2.00" shape="3428.62,2240.18 3477.31,2196.61 3485.14,2174.15 3490.90,2151.62 3503.56,2122.58 3477.99,2110.07 3472.59,2118.69 3448.11,2204.61 3428.62,2240.18"/>
    <poly id="437658323" type="building" color="255,230,230" fill="1" layer="-1.00" shape="2868.66,2964.40 2874.32,2982.74 2885.63,2998.26 2901.40,3009.30 2919.92,3014.66 2919.98,3002.05 2908.38,2999.74 2897.98,2994.14 2889.68,2985.75 2884.25,2975.29 2882.14,2963.71 2868.66,2964.40"/>
    <poly id="437658324" type="building" color="255,230,230" fill="1" layer="-1.00" shape="2203.98,3595.73 2205.98,3585.17 2226.71,3589.07 2239.36,3586.97 2251.03,3581.70 2260.95,3573.61 2261.74,3569.40 2167.87,3551.72 2140.38,3696.38 2188.78,3705.49 2194.23,3695.95 2194.05,3693.31 2193.11,3690.82 2191.46,3688.73 2189.31,3687.22 2194.71,3678.21 2198.78,3679.49 2203.05,3679.33 2207.01,3677.72 2210.18,3674.88 2223.30,3682.66 2263.61,3615.45 2249.44,3607.04 2247.95,3609.53 2233.08,3600.71 2228.35,3598.95 2223.32,3598.49 2218.35,3599.39 2213.80,3601.56 2203.98,3595.73"/>
    <poly id="437658324#1" type="shop" color="237,199,255" fill="1" layer="-1.00" shape="2203.98,3595.73 2205.98,3585.17 2226.71,3589.07 2239.36,3586.97 2251.03,3581.70 2260.95,3573.61 2261.74,3569.40 2167.87,3551.72 2140.38,3696.38 2188.78,3705.49 2194.23,3695.95 2194.05,3693.31 2193.11,3690.82 2191.46,3688.73 2189.31,3687.22 2194.71,3678.21 2198.78,3679.49 2203.05,3679.33 2207.01,3677.72 2210.18,3674.88 2223.30,3682.66 2263.61,3615.45 2249.44,3607.04 2247.95,3609.53 2233.08,3600.71 2228.35,3598.95 2223.32,3598.49 2218.35,3599.39 2213.80,3601.56 2203.98,3595.73"/>
    <poly id="437658325" type="building" color="255,230,230" fill="1" layer="-1.00" shape="3271.00,2805.21 3297.81,2806.83 3301.85,2740.22 3275.04,2738.60 3271.00,2805.21"/>
    <poly id="437658327" type="building" color="255,230,230" fill="1" layer="-1.00" shape="3303.43,2679.64 3325.75,2697.21 3334.59,2686.10 3312.25,2668.52 3303.43,2679.64"/>
    <poly id="437658328" type="building" color="255,230,230" fill="1" layer="-1.00" shape="3229.21,2666.13 3219.71,2674.50 3257.70,2717.21 3267.20,2708.84 3229.21,2666.13"/>
    <poly id="437658329" type="building" color="255,230,230" fill="1" layer="-1.00" shape="2987.66,2887.35 2988.12,2899.74 2996.14,2899.44 2995.67,2887.06 2987.66,2887.35"/>
    <poly id="437658331" type="building" color="255,230,230" fill="1" layer="-1.00" shape="3395.15,2862.19 3396.08,2846.59 3356.78,2844.29 3355.86,2859.88 3378.87,2861.23 3377.04,2892.33 3393.33,2893.28 3395.15,2862.19"/>
    <poly id="437658332" type="building" color="255,230,230" fill="1" layer="-1.00" shape="2089.89,2703.32 2099.88,2703.71 2099.65,2709.38 2195.08,2713.12 2198.57,2624.32 2095.28,2620.29 2079.73,2631.56 2077.54,2687.12 2089.89,2703.32"/>
    <poly id="437658332#1" type="shop" color="237,199,255" fill="1" layer="-1.00" shape="2089.89,2703.32 2099.88,2703.71 2099.65,2709.38 2195.08,2713.12 2198.57,2624.32 2095.28,2620.29 2079.73,2631.56 2077.54,2687.12 2089.89,2703.32"/>
    <poly id="437658333" type="building" color="255,230,230" fill="1" layer="-1.00" shape="1601.01,3378.86 1690.83,3389.40 1733.23,3391.52 1822.68,3391.20 1821.23,3376.82 1733.90,3378.17 1691.50,3376.06 1603.40,3366.55 1601.01,3378.86"/>
    <poly id="437658463" type="residential" color="235,235,227" fill="1" layer="-3.00" shape="3054.07,2595.79 3157.68,2593.83 3223.91,2575.44 3256.03,2554.63 3177.81,2415.57 3113.44,2441.74 2994.61,2431.47 2986.05,2522.43 3036.69,2526.83 3038.89,2582.01 3054.07,2595.79"/>
    <poly id="437658464" type="residential" color="235,235,227" fill="1" layer="-3.00" shape="2954.62,2833.19 3009.48,2824.29 3062.78,2795.27 3097.40,2778.14 3139.56,2749.34 3204.43,2693.56 3271.35,2628.31 3238.66,2610.98 3185.01,2603.42 2980.86,2608.47 2954.62,2833.19"/>
    <poly id="437658467" type="residential" color="235,235,227" fill="1" layer="-3.00" shape="3403.49,3081.10 3519.73,3231.43 3485.29,3282.06 3568.81,3295.55 3686.95,3171.86 3740.48,3104.22 3697.04,3061.88 3650.42,3062.74 3615.08,3027.83 3568.71,3022.99 3431.25,3008.66 3403.49,3081.10"/>
    <poly id="437658468" type="residential" color="235,235,227" fill="1" layer="-3.00" shape="2623.93,3571.14 2699.55,3590.08 2784.83,3636.07 2869.88,3690.80 2899.40,3509.72 2903.10,3446.44 2897.10,3417.96 2881.97,3402.63 2811.44,3366.81 2774.76,3363.30 2663.16,3334.67 2623.93,3571.14"/>
    <poly id="437658470" type="residential" color="235,235,227" fill="1" layer="-3.00" shape="3107.00,2887.19 3139.45,2813.73 3151.75,2798.60 3165.37,2792.76 3206.44,2786.35 3266.99,2787.40 3320.80,2788.79 3423.18,2799.54 3412.07,2944.15 3196.18,2882.94 3186.07,2913.59 3107.00,2887.19"/>
    <poly id="437658471" type="residential" color="235,235,227" fill="1" layer="-3.00" shape="3139.48,2315.67 3304.74,2608.57 3361.28,2544.60 3399.27,2496.63 3416.67,2464.63 3417.28,2440.94 3399.61,2383.30 3393.45,2321.32 3334.48,2303.70 3311.25,2301.03 3147.49,2306.09 3139.48,2315.67"/>
    <poly id="437658474" type="residential" color="235,235,227" fill="1" layer="-3.00" shape="2555.00,2959.93 2984.94,3103.40 2984.74,3111.12 2976.43,3132.54 2969.40,3143.70 2948.72,3162.74 2936.09,3170.66 2920.81,3181.08 2879.17,3189.80 2868.40,3196.25 2775.02,3102.11 2677.65,3042.94 2548.47,2992.22 2555.00,2959.93"/>
    <poly id="437658475" type="residential" color="235,235,227" fill="1" layer="-3.00" shape="3740.48,3104.22 3819.90,3036.20 3931.99,2994.79 3939.05,2853.71 3813.68,2876.18 3802.11,2718.93 3801.06,2677.20 3506.24,2686.46 3487.05,2702.85 3490.46,2740.23 3577.05,2736.28 3629.34,2756.17 3648.52,2815.40 3666.53,2960.12 3712.07,3001.48 3697.04,3061.88 3740.48,3104.22"/>
    <poly id="437658476" type="industrial" color="209,209,204" fill="1" layer="-3.00" shape="2991.88,4039.60 3164.88,4133.85 3345.18,4232.10 3447.42,4001.90 3454.23,3978.38 3380.40,3950.72 3384.19,3935.37 3420.87,3786.92 3475.42,3799.65 3450.59,3648.43 3431.52,3551.31 3268.98,3582.49 3190.41,3623.59 3076.92,3873.86 2991.88,4039.60"/>
    <poly id="437658480" type="residential" color="235,235,227" fill="1" layer="-3.00" shape="3727.33,3252.51 3841.99,3143.16 3889.44,3110.39 4016.17,3054.94 4136.15,2980.76 4112.15,3067.71 4129.71,3109.39 4225.66,3203.57 4239.03,3247.19 4209.65,3261.88 4166.92,3231.93 4110.76,3161.45 3991.57,3165.58 3866.10,3211.79 3852.28,3266.03 3727.33,3252.51"/>
    <poly id="437658482" type="forest" color="140,196,107" fill="1" layer="-3.00" shape="3452.15,2840.99 3520.26,2849.96 3565.90,2887.20 3563.77,2929.39 3549.29,2969.20 3562.84,3005.61 3568.71,3022.99 3615.08,3027.83 3650.42,3062.74 3697.04,3061.88 3712.07,3001.48 3666.53,2960.12 3648.52,2815.40 3629.34,2756.17 3577.05,2736.28 3490.46,2740.23 3463.08,2738.23 3452.15,2840.99"/>
    <poly id="437658483" type="residential" color="235,235,227" fill="1" layer="-3.00" shape="2916.77,3237.39 3051.83,3381.00 3081.70,3306.55 3227.43,3357.71 3191.16,3439.19 3218.92,3447.12 3259.85,3345.14 3087.33,3289.19 3138.86,3097.84 3332.17,3151.24 3402.40,2997.47 3412.07,2944.15 3196.18,2882.94 3186.07,2913.59 3107.00,2887.19 3100.96,2900.83 3050.21,3042.23 3019.83,3156.33 3009.55,3173.06 2986.87,3189.49 2924.00,3217.75 2907.74,3226.24 2916.77,3237.39"/>
    <poly id="437658486" type="residential" color="235,235,227" fill="1" layer="-3.00" shape="2828.29,2523.06 2843.92,2303.51 2978.33,2313.01 2962.70,2532.57 2828.29,2523.06"/>
    <poly id="437658487" type="residential" color="235,235,227" fill="1" layer="-3.00" shape="2225.88,2562.96 2545.06,2573.88 2554.80,2290.25 2235.61,2279.33 2225.88,2562.96"/>
    <poly id="437658488" type="residential" color="235,235,227" fill="1" layer="-3.00" shape="3259.85,3345.14 3332.17,3151.24 3138.86,3097.84 3087.33,3289.19 3259.85,3345.14"/>
    <poly id="437658489" type="residential" color="235,235,227" fill="1" layer="-3.00" shape="1925.64,3706.70 2109.97,3745.95 2153.48,3523.50 1939.02,3487.59 1925.64,3706.70"/>
    <poly id="437658492" type="residential" color="235,235,227" fill="1" layer="-3.00" shape="1928.82,3446.51 2060.86,3466.39 2080.28,3234.04 1945.76,3230.58 1928.82,3446.51"/>
    <poly id="437658494" type="residential" color="235,235,227" fill="1" layer="-3.00" shape="2220.90,2764.08 2539.37,2782.56 2543.29,2589.99 2226.69,2578.76 2220.90,2764.08"/>
    <poly id="437658496" type="residential" color="235,235,227" fill="1" layer="-3.00" shape="1560.08,3662.68 1895.33,3712.49 1903.75,3585.98 1560.46,3526.69 1560.08,3662.68"/>
    <poly id="437658498" type="industrial" color="209,209,204" fill="1" layer="-3.00" shape="2384.63,3534.59 2615.64,3571.44 2632.85,3425.58 2448.23,3397.13 2416.08,3479.77 2384.63,3534.59"/>
    <poly id="437658499" type="commercial" color="209,209,204" fill="1" layer="-3.00" shape="2528.10,3136.66 2549.66,3056.65 2557.55,3052.21 2685.54,3108.57 2669.86,3183.04 2528.10,3136.66"/>
    <poly id="437658501" type="residential" color="235,235,227" fill="1" layer="-3.00" shape="2632.85,3425.58 2668.66,3200.87 2521.72,3156.90 2481.74,3302.17 2448.23,3397.13 2632.85,3425.58"/>
    <poly id="437658502" type="residential" color="235,235,227" fill="1" layer="-3.00" shape="4010.04,2795.20 4011.12,2749.67 4103.44,2746.37 4105.99,2855.44 4052.41,2886.57 4070.21,2928.34 4466.99,2691.80 4439.62,2658.56 4394.14,2659.65 3971.83,2673.95 3961.20,2793.14 4010.04,2795.20"/>
    <poly id="437658503" type="residential" color="235,235,227" fill="1" layer="-3.00" shape="3979.10,2374.61 4094.90,2382.23 4138.47,2379.23 4171.09,2375.11 4270.99,2351.74 4266.12,2265.64 4255.84,2134.34 4122.91,2132.56 3989.83,2136.89 3979.10,2374.61"/>
    <poly id="437658504" type="residential" color="235,235,227" fill="1" layer="-3.00" shape="3595.35,2335.91 3953.59,2373.52 3964.40,2368.75 3970.03,2360.34 3979.60,2137.13 3678.20,2146.40 3620.30,2154.89 3610.72,2163.75 3595.35,2335.91"/>
    <poly id="437658505" type="residential" color="235,235,227" fill="1" layer="-3.00" shape="2407.78,2969.31 2126.05,2843.16 2078.92,3468.39 2336.46,3520.34 2369.04,3461.43 2410.48,3380.06 2447.97,3237.61 2279.14,3184.15 2407.78,2969.31"/>
    <poly id="437658509" type="residential" color="235,235,227" fill="1" layer="-3.00" shape="3504.13,2660.47 3515.04,2668.99 3793.60,2658.17 3953.97,2652.54 3962.12,2397.78 3783.82,2378.81 3593.17,2362.14 3563.53,2469.73 3501.57,2645.55 3504.13,2660.47"/>
    <poly id="437658510" type="residential" color="235,235,227" fill="1" layer="-3.00" shape="2235.20,2852.03 2523.30,2964.53 2528.01,2862.13 2523.97,2837.81 2479.05,2812.45 2253.01,2804.05 2235.20,2852.03"/>
    <poly id="437658512" type="residential" color="235,235,227" fill="1" layer="-3.00" shape="2583.63,3829.22 2795.96,3867.14 2855.89,3872.29 2870.77,3736.67 2789.89,3680.50 2692.85,3629.07 2614.58,3612.63 2583.63,3829.22"/>
    <poly id="437658514" type="residential" color="235,235,227" fill="1" layer="-3.00" shape="2663.16,3334.67 2690.58,3154.30 2717.14,3107.58 2823.13,3214.37 2773.80,3259.98 2757.02,3328.58 2774.76,3363.30 2663.16,3334.67"/>
    <poly id="437658515" type="residential" color="235,235,227" fill="1" layer="-3.00" shape="3975.18,2648.16 4380.82,2636.21 4392.90,2627.29 4393.17,2614.73 4339.67,2568.98 4304.80,2532.01 4294.34,2495.17 4267.39,2383.70 4140.88,2407.21 3975.40,2398.81 3975.18,2648.16"/>
    <poly id="437658517" type="residential" color="235,235,227" fill="1" layer="-3.00" shape="2866.43,3261.86 3020.48,3412.12 2962.89,3472.99 2949.37,3439.14 2938.20,3410.52 2877.01,3353.82 2823.39,3325.14 2833.47,3275.43 2866.43,3261.86"/>
    <poly id="437658519" type="residential" color="235,235,227" fill="1" layer="-3.00" shape="2985.86,3750.71 2997.22,3671.68 3085.44,3483.34 3020.48,3412.12 2962.89,3472.99 2948.63,3488.06 2913.49,3625.73 2908.68,3712.15 2985.86,3750.71"/>
    <poly id="437658521" type="residential" color="235,235,227" fill="1" layer="-3.00" shape="2559.70,2797.26 2610.32,2802.16 2674.53,2822.37 2751.05,2846.49 2787.65,2852.59 2895.06,2844.01 2947.01,2837.36 2958.18,2604.79 2562.88,2593.58 2559.70,2797.26"/>
    <poly id="437658523" type="residential" color="235,235,227" fill="1" layer="-3.00" shape="3347.31,2278.26 3357.14,2178.06 3412.17,2052.21 3472.59,2118.69 3448.11,2204.61 3428.62,2240.18 3422.16,2251.99 3403.44,2275.21 3401.23,2285.37 3347.31,2278.26"/>
    <poly id="437658525" type="water" color="181,209,209" fill="0" layer="-4.00" shape="1625.12,2536.98 1716.67,2419.80 1752.12,2369.71 1767.78,2329.22 1777.17,2321.93 1812.45,2319.23 1863.81,2315.39 1879.64,2324.04 1955.84,2462.00 1989.49,2502.54 1996.62,2507.62"/>
    <poly id="437658529" type="water" color="181,209,209" fill="0" layer="-4.00" shape="2043.75,2547.21 2043.35,2582.75"/>
    <poly id="437658532" type="water" color="181,209,209" fill="0" layer="-4.00" shape="1996.62,2507.62 2022.40,2526.01"/>
    <poly id="437658535" type="water" color="181,209,209" fill="0" layer="-4.00" shape="2022.40,2526.01 2032.20,2533.00 2043.75,2547.21"/>
    <poly id="437658536" type="water" color="181,209,209" fill="1" layer="-4.00" shape="2555.10,2837.77 2528.75,2833.30 2490.06,2807.57 2147.69,2791.56 1896.87,2774.94 1567.45,2759.28 1111.54,2729.07 877.82,2716.91 450.66,2696.72 264.35,2692.99 -34.76,2686.39 -97.00,2690.99 -92.47,2675.65 40.05,2676.97 199.42,2681.03 357.70,2687.13 475.81,2684.99 699.45,2686.58 880.20,2695.07 1194.65,2718.82 1551.45,2737.24 1907.18,2756.67 2120.39,2766.14 2376.79,2782.51 2527.73,2792.06 2559.70,2797.26 2610.32,2802.16 2674.53,2822.37 2751.05,2846.49 2787.65,2852.59 2895.06,2844.01 2950.10,2837.71 3009.48,2824.29 3062.78,2795.27 3080.26,2822.96 2997.53,2858.44 2915.73,2878.49 2819.79,2884.26 2750.03,2878.86 2706.18,2872.57 2651.27,2853.13 2642.29,2850.07 2622.47,2845.69 2590.53,2839.20 2555.10,2837.77"/>
    <poly id="437658537" type="water" color="181,209,209" fill="1" layer="-4.00" shape="2555.62,2898.32 2555.00,2959.93 2984.94,3103.40 3003.42,3071.87 2992.38,3078.79 2960.89,3074.90 2962.07,3069.26 2951.30,3065.38 2952.53,3057.69 2817.01,3012.21 2813.99,3018.82 2804.93,3018.68 2796.42,3015.61 2789.36,3009.94 2791.62,3002.79 2647.80,2948.51 2646.93,2951.41 2618.29,2947.84 2619.17,2943.48 2604.53,2939.50 2607.41,2933.27 2596.76,2929.26 2604.06,2907.03 2614.09,2909.61 2625.26,2908.84 2635.50,2904.34 2643.59,2896.65 2648.57,2886.67 2649.84,2875.60 2647.25,2864.76 2641.12,2855.44 2642.29,2850.07 2622.47,2845.69 2623.36,2851.38 2628.46,2854.35 2628.60,2858.72 2634.80,2862.79 2639.26,2868.68 2641.47,2875.73 2641.17,2883.11 2638.39,2889.95 2633.46,2895.47 2626.96,2899.01 2619.63,2900.18 2612.34,2898.81 2605.93,2895.10 2601.15,2889.45 2593.62,2890.29 2588.13,2922.34 2575.51,2920.21 2575.83,2907.60 2567.77,2898.89 2555.62,2898.32"/>